<?xml version="1.0" ?>
<routes>
    <vType id="car" accel="2.6" decel="4.5" sigma="0.5" length="5" maxSpeed="70"/>
    <vType id="bus" accel="1.2" decel="4.0" sigma="0.5" length="12" maxSpeed="50"/>
    <vType id="truck" accel="1.0" decel="4.0" sigma="0.5" length="8" maxSpeed="60"/>
    <vehicle id="0" type="bus" depart="0.00">
        <route edges="D2E2 E2E1 E1E2 E2D2 D2C2 C2B2"/>
    </vehicle>
    <vehicle id="1" type="bus" depart="3.75">
        <route edges="C1D1 D1D0 D0C0 C0D0 D0E0 E0E1 E1E2"/>
    </vehicle>
    <vehicle id="2" type="bus" depart="7.26">
        <route edges="C1B1 B1A1 A1A2 A2B2"/>
    </vehicle>
    <vehicle id="3" type="car" depart="11.27">
        <route edges="C0B0 B0B1 B1B2 B2C2 C2B2"/>
    </vehicle>
    <vehicle id="4" type="truck" depart="14.81">
        <route edges="D2C2 C2D2 D2D1 D1C1 C1B1 B1A1 A1A2"/>
    </vehicle>
    <vehicle id="5" type="truck" depart="19.15">
        <route edges="B0B1 B1B2 B2A2 A2A1 A1A0 A0B0"/>
    </vehicle>
    <vehicle id="6" type="car" depart="22.98">
        <route edges="B1B2 B2C2 C2C1 C1D1 D1D2 D2C2"/>
    </vehicle>
    <vehicle id="7" type="bus" depart="27.08">
        <route edges="D0D1 D1D2 D2E2 E2E1 E1E0"/>
    </vehicle>
    <vehicle id="8" type="bus" depart="31.11">
        <route edges="B1A1 A1A2 A2B2"/>
    </vehicle>
    <vehicle id="9" type="car" depart="35.17">
        <route edges="D0C0 C0B0"/>
    </vehicle>
    <vehicle id="10" type="car" depart="38.88">
        <route edges="D2D1 D1D0 D0D1 D1D2"/>
    </vehicle>
    <vehicle id="11" type="car" depart="43.03">
        <route edges="E1E0 E0D0 D0C0 C0B0 B0A0"/>
    </vehicle>
    <vehicle id="12" type="truck" depart="47.48">
        <route edges="B1C1 C1C0 C0B0 B0A0 A0A1 A1A2 A2B2"/>
    </vehicle>
    <vehicle id="13" type="car" depart="51.71">
        <route edges="D2E2 E2E1 E1E2 E2D2 D2C2 C2B2"/>
    </vehicle>
    <vehicle id="14" type="truck" depart="55.93">
        <route edges="E1E2 E2D2 D2E2"/>
    </vehicle>
    <vehicle id="15" type="bus" depart="60.19">
        <route edges="A1B1 B1C1 C1C0 C0C1 C1C2 C2B2 B2A2"/>
    </vehicle>
    <vehicle id="16" type="truck" depart="64.44">
        <route edges="A1A0 A0B0 B0B1 B1B0 B0B1 B1B2 B2C2"/>
    </vehicle>
    <vehicle id="17" type="truck" depart="68.93">
        <route edges="D0D1 D1D2 D2E2 E2E1 E1E0"/>
    </vehicle>
    <vehicle id="18" type="car" depart="73.26">
        <route edges="A0B0 B0C0 C0D0"/>
    </vehicle>
    <vehicle id="19" type="car" depart="77.66">
        <route edges="B2B1 B1A1 A1A2 A2B2 B2B1"/>
    </vehicle>
    <vehicle id="20" type="car" depart="81.28">
        <route edges="A0A1 A1A2"/>
    </vehicle>
    <vehicle id="21" type="car" depart="84.92">
        <route edges="C1C0 C0C1 C1C0 C0B0"/>
    </vehicle>
    <vehicle id="22" type="truck" depart="88.90">
        <route edges="C2D2 D2E2 E2E1 E1E0 E0D0 D0D1 D1C1"/>
    </vehicle>
    <vehicle id="23" type="bus" depart="92.54">
        <route edges="E1E0 E0D0 D0E0 E0E1"/>
    </vehicle>
    <vehicle id="24" type="car" depart="96.12">
        <route edges="B2C2 C2B2"/>
    </vehicle>
    <vehicle id="25" type="car" depart="99.72">
        <route edges="C2C1 C1C0 C0B0 B0A0 A0A1"/>
    </vehicle>
    <vehicle id="26" type="bus" depart="103.94">
        <route edges="D1D0 D0D1 D1D2 D2C2 C2B2 B2A2"/>
    </vehicle>
    <vehicle id="27" type="car" depart="108.32">
        <route edges="A1A2 A2B2 B2B1"/>
    </vehicle>
    <vehicle id="28" type="bus" depart="112.44">
        <route edges="B2C2 C2C1"/>
    </vehicle>
    <vehicle id="29" type="bus" depart="116.59">
        <route edges="D2C2 C2C1 C1C0"/>
    </vehicle>
    <vehicle id="30" type="bus" depart="120.79">
        <route edges="C2D2 D2E2 E2E1 E1D1 D1D2 D2D1"/>
    </vehicle>
    <vehicle id="31" type="car" depart="124.79">
        <route edges="E1E0 E0D0 D0C0 C0B0 B0A0"/>
    </vehicle>
    <vehicle id="32" type="truck" depart="128.57">
        <route edges="D2D1 D1C1 C1B1"/>
    </vehicle>
    <vehicle id="33" type="car" depart="132.31">
        <route edges="C0C1 C1C2 C2B2 B2B1 B1B2"/>
    </vehicle>
    <vehicle id="34" type="car" depart="136.23">
        <route edges="C1D1 D1D0 D0C0 C0D0 D0E0 E0E1 E1E2"/>
    </vehicle>
    <vehicle id="35" type="truck" depart="140.53">
        <route edges="A1B1 B1C1 C1D1 D1C1 C1B1 B1C1"/>
    </vehicle>
    <vehicle id="36" type="bus" depart="144.19">
        <route edges="A1B1 B1C1 C1C0 C0C1 C1C2 C2B2 B2A2"/>
    </vehicle>
    <vehicle id="37" type="car" depart="147.85">
        <route edges="C1C0 C0C1 C1C0 C0B0"/>
    </vehicle>
    <vehicle id="38" type="bus" depart="152.27">
        <route edges="E2D2 D2E2 E2E1"/>
    </vehicle>
    <vehicle id="39" type="bus" depart="156.44">
        <route edges="A1A0 A0B0 B0B1 B1B0 B0B1 B1B2 B2C2"/>
    </vehicle>
    <vehicle id="40" type="bus" depart="160.71">
        <route edges="C0D0 D0E0 E0E1"/>
    </vehicle>
    <vehicle id="41" type="truck" depart="164.64">
        <route edges="C2C1 C1C0 C0B0 B0A0 A0A1"/>
    </vehicle>
    <vehicle id="42" type="truck" depart="168.64">
        <route edges="C0D0 D0D1 D1E1"/>
    </vehicle>
    <vehicle id="43" type="car" depart="172.71">
        <route edges="E0D0 D0C0 C0C1 C1C2 C2D2 D2C2 C2D2"/>
    </vehicle>
    <vehicle id="44" type="bus" depart="176.23">
        <route edges="A1B1 B1A1 A1B1 B1A1 A1B1 B1A1"/>
    </vehicle>
    <vehicle id="45" type="car" depart="179.78">
        <route edges="C2B2 B2C2 C2C1"/>
    </vehicle>
    <vehicle id="46" type="bus" depart="183.58">
        <route edges="C1D1 D1D0 D0C0 C0D0 D0E0 E0E1 E1E2"/>
    </vehicle>
    <vehicle id="47" type="car" depart="185.70">
        <route edges="E1E0 E0D0 D0C0 C0B0 B0A0"/>
    </vehicle>
    <vehicle id="48" type="bus" depart="187.26">
        <route edges="A1B1 B1A1 A1B1 B1A1 A1B1 B1A1"/>
    </vehicle>
    <vehicle id="49" type="truck" depart="188.90">
        <route edges="D0C0 C0B0"/>
    </vehicle>
    <vehicle id="50" type="truck" depart="190.73">
        <route edges="D2D1 D1C1 C1B1"/>
    </vehicle>
    <vehicle id="51" type="truck" depart="192.35">
        <route edges="C0D0 D0E0 E0E1"/>
    </vehicle>
    <vehicle id="52" type="car" depart="194.38">
        <route edges="B2A2 A2A1 A1A0 A0B0"/>
    </vehicle>
    <vehicle id="53" type="bus" depart="196.28">
        <route edges="A1A2 A2B2 B2C2 C2C1 C1C2 C2C1"/>
    </vehicle>
    <vehicle id="54" type="truck" depart="198.30">
        <route edges="D1D0 D0D1"/>
    </vehicle>
    <vehicle id="55" type="car" depart="200.38">
        <route edges="C2B2 B2A2 A2A1 A1B1 B1B0 B0A0"/>
    </vehicle>
    <vehicle id="56" type="car" depart="202.05">
        <route edges="E1E0 E0D0 D0E0 E0E1"/>
    </vehicle>
    <vehicle id="57" type="car" depart="204.42">
        <route edges="E2E1 E1E0 E0D0 D0E0 E0E1 E1D1"/>
    </vehicle>
    <vehicle id="58" type="truck" depart="206.80">
        <route edges="B0C0 C0D0 D0D1 D1D2 D2E2"/>
    </vehicle>
    <vehicle id="59" type="truck" depart="209.12">
        <route edges="B1B0 B0A0 A0A1 A1B1"/>
    </vehicle>
    <vehicle id="60" type="car" depart="210.96">
        <route edges="A1B1 B1C1 C1C0 C0C1 C1C2 C2B2 B2A2"/>
    </vehicle>
    <vehicle id="61" type="bus" depart="212.78">
        <route edges="A0B0 B0C0 C0B0 B0B1"/>
    </vehicle>
    <vehicle id="62" type="bus" depart="214.31">
        <route edges="D2D1 D1C1 C1B1"/>
    </vehicle>
    <vehicle id="63" type="car" depart="216.07">
        <route edges="E2E1 E1E0 E0D0 D0E0 E0E1 E1D1"/>
    </vehicle>
    <vehicle id="64" type="truck" depart="218.17">
        <route edges="A1A0 A0B0 B0B1 B1B0 B0B1 B1B2 B2C2"/>
    </vehicle>
    <vehicle id="65" type="car" depart="220.07">
        <route edges="B0A0 A0A1 A1A2 A2B2"/>
    </vehicle>
    <vehicle id="66" type="truck" depart="221.82">
        <route edges="A2B2 B2C2 C2D2 D2D1 D1E1 E1E0"/>
    </vehicle>
    <vehicle id="67" type="bus" depart="223.60">
        <route edges="C1C2 C2D2"/>
    </vehicle>
    <vehicle id="68" type="car" depart="225.95">
        <route edges="D1C1 C1B1 B1B2 B2C2 C2D2"/>
    </vehicle>
    <vehicle id="69" type="truck" depart="227.92">
        <route edges="C0D0 D0E0 E0E1"/>
    </vehicle>
    <vehicle id="70" type="car" depart="230.03">
        <route edges="C2B2 B2C2 C2C1"/>
    </vehicle>
    <vehicle id="71" type="bus" depart="231.94">
        <route edges="C2C1 C1C0 C0B0 B0A0 A0A1"/>
    </vehicle>
    <vehicle id="72" type="car" depart="233.76">
        <route edges="C2C1 C1C0 C0B0 B0A0 A0A1"/>
    </vehicle>
    <vehicle id="73" type="truck" depart="235.89">
        <route edges="C1B1 B1A1 A1B1 B1B0 B0A0 A0A1 A1A0"/>
    </vehicle>
    <vehicle id="74" type="car" depart="237.58">
        <route edges="C0D0 D0E0 E0E1"/>
    </vehicle>
    <vehicle id="75" type="car" depart="239.18">
        <route edges="E1E2 E2D2 D2E2"/>
    </vehicle>
    <vehicle id="76" type="car" depart="241.00">
        <route edges="C1C0 C0C1"/>
    </vehicle>
    <vehicle id="77" type="car" depart="242.85">
        <route edges="D2C2 C2D2 D2D1 D1C1 C1B1 B1A1 A1A2"/>
    </vehicle>
    <vehicle id="78" type="bus" depart="245.12">
        <route edges="B2C2 C2C1"/>
    </vehicle>
    <vehicle id="79" type="car" depart="246.72">
        <route edges="A1A2 A2B2 B2B1"/>
    </vehicle>
    <vehicle id="80" type="bus" depart="248.67">
        <route edges="D0E0 E0E1 E1E2 E2D2 D2D1"/>
    </vehicle>
    <vehicle id="81" type="bus" depart="250.48">
        <route edges="D1D0 D0D1 D1D2 D2C2 C2B2 B2A2"/>
    </vehicle>
    <vehicle id="82" type="truck" depart="252.33">
        <route edges="A0B0 B0C0 C0D0"/>
    </vehicle>
    <vehicle id="83" type="truck" depart="254.08">
        <route edges="B1A1 A1A2 A2B2"/>
    </vehicle>
    <vehicle id="84" type="truck" depart="255.92">
        <route edges="C1C2 C2D2"/>
    </vehicle>
    <vehicle id="85" type="bus" depart="258.39">
        <route edges="C2C1 C1C0 C0B0 B0A0 A0A1"/>
    </vehicle>
    <vehicle id="86" type="truck" depart="259.91">
        <route edges="D1E1 E1E0 E0D0"/>
    </vehicle>
    <vehicle id="87" type="car" depart="261.90">
        <route edges="E2D2 D2E2 E2E1 E1D1 D1C1 C1B1 B1A1"/>
    </vehicle>
    <vehicle id="88" type="bus" depart="263.64">
        <route edges="E2D2 D2D1 D1D0 D0D1"/>
    </vehicle>
    <vehicle id="89" type="truck" depart="265.94">
        <route edges="B2B1 B1A1 A1A2 A2B2 B2B1"/>
    </vehicle>
    <vehicle id="90" type="bus" depart="267.65">
        <route edges="C0D0 D0C0 C0B0 B0A0 A0A1 A1B1"/>
    </vehicle>
    <vehicle id="91" type="car" depart="269.55">
        <route edges="C2B2 B2B1 B1B2"/>
    </vehicle>
    <vehicle id="92" type="car" depart="271.68">
        <route edges="D2E2 E2E1 E1E0 E0D0"/>
    </vehicle>
    <vehicle id="93" type="bus" depart="273.62">
        <route edges="B0B1 B1B2 B2A2 A2A1 A1A0 A0B0"/>
    </vehicle>
    <vehicle id="94" type="truck" depart="275.62">
        <route edges="B0C0 C0D0 D0D1"/>
    </vehicle>
    <vehicle id="95" type="car" depart="277.52">
        <route edges="D1D0 D0D1"/>
    </vehicle>
    <vehicle id="96" type="car" depart="279.46">
        <route edges="D0E0 E0E1 E1E2 E2D2 D2D1"/>
    </vehicle>
    <vehicle id="97" type="bus" depart="281.78">
        <route edges="E2D2 D2E2 E2E1 E1D1 D1C1 C1B1 B1A1"/>
    </vehicle>
    <vehicle id="98" type="car" depart="283.84">
        <route edges="D1E1 E1E0 E0D0"/>
    </vehicle>
    <vehicle id="99" type="bus" depart="285.97">
        <route edges="B1B0 B0B1 B1C1 C1D1 D1D0 D0D1"/>
    </vehicle>
    <vehicle id="100" type="truck" depart="288.05">
        <route edges="C2C1 C1C0 C0C1 C1C2 C2D2 D2C2 C2B2"/>
    </vehicle>
    <vehicle id="101" type="truck" depart="289.66">
        <route edges="A2B2 B2C2 C2D2 D2D1 D1E1 E1E0"/>
    </vehicle>
    <vehicle id="102" type="truck" depart="292.05">
        <route edges="E1E2 E2D2 D2D1"/>
    </vehicle>
    <vehicle id="103" type="bus" depart="293.74">
        <route edges="A2A1 A1B1"/>
    </vehicle>
    <vehicle id="104" type="car" depart="295.41">
        <route edges="B1B2 B2C2 C2B2 B2B1 B1B0 B0B1 B1A1"/>
    </vehicle>
    <vehicle id="105" type="bus" depart="297.33">
        <route edges="D1D0 D0E0 E0E1 E1E2"/>
    </vehicle>
    <vehicle id="106" type="truck" depart="299.14">
        <route edges="E1E2 E2D2 D2D1"/>
    </vehicle>
    <vehicle id="107" type="car" depart="300.86">
        <route edges="D2C2 C2D2 D2C2 C2C1 C1C0 C0B0 B0B1"/>
    </vehicle>
    <vehicle id="108" type="bus" depart="302.89">
        <route edges="A2A1 A1A2 A2B2"/>
    </vehicle>
    <vehicle id="109" type="car" depart="304.69">
        <route edges="E2D2 D2D1 D1D0 D0D1"/>
    </vehicle>
    <vehicle id="110" type="car" depart="306.69">
        <route edges="B1B0 B0A0 A0A1 A1A0 A0B0"/>
    </vehicle>
    <vehicle id="111" type="bus" depart="308.89">
        <route edges="A2A1 A1B1"/>
    </vehicle>
    <vehicle id="112" type="car" depart="310.60">
        <route edges="B2C2 C2B2"/>
    </vehicle>
    <vehicle id="113" type="truck" depart="312.86">
        <route edges="B1A1 A1B1 B1C1 C1C0"/>
    </vehicle>
    <vehicle id="114" type="car" depart="314.48">
        <route edges="D2E2 E2E1 E1E0 E0D0 D0C0 C0B0"/>
    </vehicle>
    <vehicle id="115" type="truck" depart="316.22">
        <route edges="C0D0 D0C0 C0B0 B0A0 A0A1 A1B1"/>
    </vehicle>
    <vehicle id="116" type="car" depart="318.50">
        <route edges="D0E0 E0E1 E1E2 E2D2 D2D1"/>
    </vehicle>
    <vehicle id="117" type="bus" depart="320.74">
        <route edges="B0B1 B1A1 A1B1"/>
    </vehicle>
    <vehicle id="118" type="bus" depart="323.14">
        <route edges="B1A1 A1A2 A2B2"/>
    </vehicle>
    <vehicle id="119" type="bus" depart="325.31">
        <route edges="B1B0 B0A0 A0A1 A1B1"/>
    </vehicle>
    <vehicle id="120" type="bus" depart="326.89">
        <route edges="C1D1 D1D0 D0C0 C0D0 D0E0 E0E1 E1E2"/>
    </vehicle>
    <vehicle id="121" type="car" depart="328.92">
        <route edges="A1B1 B1C1 C1D1 D1C1 C1B1 B1C1"/>
    </vehicle>
    <vehicle id="122" type="car" depart="330.87">
        <route edges="C1D1 D1E1 E1E0 E0D0 D0D1"/>
    </vehicle>
    <vehicle id="123" type="bus" depart="333.37">
        <route edges="D0D1 D1D2 D2E2 E2E1 E1E0"/>
    </vehicle>
    <vehicle id="124" type="bus" depart="335.76">
        <route edges="A1A0 A0B0 B0B1 B1B0 B0B1 B1B2 B2C2"/>
    </vehicle>
    <vehicle id="125" type="truck" depart="337.59">
        <route edges="E1E2 E2D2 D2D1"/>
    </vehicle>
    <vehicle id="126" type="bus" depart="339.44">
        <route edges="D2E2 E2E1 E1E2 E2D2 D2C2 C2B2"/>
    </vehicle>
    <vehicle id="127" type="car" depart="341.03">
        <route edges="B1B2 B2C2 C2C1 C1D1 D1D2 D2C2"/>
    </vehicle>
    <vehicle id="128" type="truck" depart="342.56">
        <route edges="B2C2 C2B2"/>
    </vehicle>
    <vehicle id="129" type="truck" depart="345.05">
        <route edges="C1D1 D1D0 D0C0 C0D0 D0E0 E0E1 E1E2"/>
    </vehicle>
    <vehicle id="130" type="truck" depart="347.37">
        <route edges="E1E0 E0D0"/>
    </vehicle>
    <vehicle id="131" type="car" depart="349.15">
        <route edges="A2A1 A1B1"/>
    </vehicle>
    <vehicle id="132" type="truck" depart="351.11">
        <route edges="C0C1 C1D1 D1E1 E1E0"/>
    </vehicle>
    <vehicle id="133" type="truck" depart="353.26">
        <route edges="B1A1 A1A2 A2B2"/>
    </vehicle>
    <vehicle id="134" type="car" depart="355.21">
        <route edges="B0A0 A0A1 A1B1 B1B2 B2C2 C2D2 D2D1"/>
    </vehicle>
    <vehicle id="135" type="bus" depart="357.13">
        <route edges="E1D1 D1C1 C1C0 C0C1 C1C0 C0D0 D0C0"/>
    </vehicle>
    <vehicle id="136" type="bus" depart="358.98">
        <route edges="C1C2 C2D2 D2E2 E2E1 E1E0"/>
    </vehicle>
    <vehicle id="137" type="car" depart="361.32">
        <route edges="E2D2 D2D1 D1D0 D0D1"/>
    </vehicle>
    <vehicle id="138" type="bus" depart="363.17">
        <route edges="D2E2 E2E1 E1E0 E0D0 D0C0 C0B0"/>
    </vehicle>
    <vehicle id="139" type="car" depart="365.45">
        <route edges="E2D2 D2D1 D1D0 D0D1"/>
    </vehicle>
    <vehicle id="140" type="car" depart="366.07">
        <route edges="D1C1 C1B1 B1B2 B2C2 C2D2"/>
    </vehicle>
    <vehicle id="141" type="truck" depart="366.65">
        <route edges="A1A2 A2B2 B2B1"/>
    </vehicle>
    <vehicle id="142" type="car" depart="367.26">
        <route edges="B1C1 C1C0 C0B0 B0A0 A0A1 A1A2 A2B2"/>
    </vehicle>
    <vehicle id="143" type="bus" depart="367.81">
        <route edges="C1C0 C0C1"/>
    </vehicle>
    <vehicle id="144" type="truck" depart="368.63">
        <route edges="D0E0 E0E1 E1E2 E2D2 D2D1"/>
    </vehicle>
    <vehicle id="145" type="bus" depart="369.62">
        <route edges="C0B0 B0B1 B1B2 B2C2 C2B2"/>
    </vehicle>
    <vehicle id="146" type="truck" depart="371.09">
        <route edges="A1A0 A0B0"/>
    </vehicle>
    <vehicle id="147" type="truck" depart="372.33">
        <route edges="B1B0 B0A0 A0A1 A1A0 A0B0"/>
    </vehicle>
    <vehicle id="148" type="bus" depart="373.19">
        <route edges="A2A1 A1B1"/>
    </vehicle>
    <vehicle id="149" type="bus" depart="373.92">
        <route edges="A2B2 B2C2 C2D2 D2D1 D1E1 E1E0"/>
    </vehicle>
    <vehicle id="150" type="bus" depart="375.36">
        <route edges="D2E2 E2E1 E1E0 E0D0 D0C0 C0B0"/>
    </vehicle>
    <vehicle id="151" type="truck" depart="375.97">
        <route edges="C2B2 B2A2 A2A1 A1B1 B1B0 B0A0"/>
    </vehicle>
    <vehicle id="152" type="truck" depart="377.11">
        <route edges="B2C2 C2B2"/>
    </vehicle>
    <vehicle id="153" type="car" depart="378.43">
        <route edges="B0B1 B1A1 A1B1"/>
    </vehicle>
    <vehicle id="154" type="bus" depart="379.02">
        <route edges="D0D1 D1D2 D2E2 E2E1 E1E0"/>
    </vehicle>
    <vehicle id="155" type="car" depart="379.80">
        <route edges="D1C1 C1B1 B1B2 B2C2 C2D2"/>
    </vehicle>
    <vehicle id="156" type="truck" depart="380.35">
        <route edges="C0C1 C1D1 D1E1 E1E0"/>
    </vehicle>
    <vehicle id="157" type="truck" depart="381.16">
        <route edges="B1B2 B2C2 C2C1 C1D1 D1D2 D2C2"/>
    </vehicle>
    <vehicle id="158" type="car" depart="382.21">
        <route edges="C2D2 D2E2 E2E1 E1D1 D1D2 D2D1"/>
    </vehicle>
    <vehicle id="159" type="bus" depart="382.98">
        <route edges="D1C1 C1B1 B1B2 B2C2 C2D2"/>
    </vehicle>
    <vehicle id="160" type="car" depart="383.77">
        <route edges="E0D0 D0C0 C0C1 C1C2 C2D2 D2C2 C2D2"/>
    </vehicle>
    <vehicle id="161" type="car" depart="384.73">
        <route edges="D1C1 C1B1 B1A1"/>
    </vehicle>
    <vehicle id="162" type="bus" depart="385.27">
        <route edges="A1B1 B1C1 C1C0 C0C1 C1C2 C2B2 B2A2"/>
    </vehicle>
    <vehicle id="163" type="bus" depart="386.53">
        <route edges="E0D0 D0C0 C0C1 C1C2 C2D2 D2C2 C2D2"/>
    </vehicle>
    <vehicle id="164" type="bus" depart="387.71">
        <route edges="A0A1 A1A2"/>
    </vehicle>
    <vehicle id="165" type="truck" depart="388.79">
        <route edges="C2D2 D2E2 E2E1 E1E0 E0D0 D0D1 D1C1"/>
    </vehicle>
    <vehicle id="166" type="truck" depart="389.59">
        <route edges="D0D1 D1D2 D2E2 E2E1 E1E0"/>
    </vehicle>
    <vehicle id="167" type="bus" depart="390.29">
        <route edges="B0A0 A0A1 A1A2 A2B2"/>
    </vehicle>
    <vehicle id="168" type="car" depart="390.95">
        <route edges="E1E2 E2D2 D2C2"/>
    </vehicle>
    <vehicle id="169" type="car" depart="392.10">
        <route edges="C0B0 B0A0 A0A1"/>
    </vehicle>
    <vehicle id="170" type="bus" depart="393.32">
        <route edges="D2C2 C2D2 D2C2 C2C1 C1C0 C0B0 B0B1"/>
    </vehicle>
    <vehicle id="171" type="bus" depart="394.56">
        <route edges="A0B0 B0C0 C0B0 B0B1"/>
    </vehicle>
    <vehicle id="172" type="bus" depart="395.40">
        <route edges="D1C1 C1B1 B1A1"/>
    </vehicle>
    <vehicle id="173" type="truck" depart="396.87">
        <route edges="B0C0 C0D0 D0D1"/>
    </vehicle>
    <vehicle id="174" type="bus" depart="397.78">
        <route edges="C1C0 C0C1"/>
    </vehicle>
    <vehicle id="175" type="bus" depart="398.95">
        <route edges="C0B0 B0B1 B1B2 B2C2 C2B2"/>
    </vehicle>
    <vehicle id="176" type="bus" depart="400.17">
        <route edges="B1A1 A1B1 B1C1 C1C0"/>
    </vehicle>
    <vehicle id="177" type="bus" depart="401.23">
        <route edges="D0E0 E0E1 E1E2 E2D2 D2D1"/>
    </vehicle>
    <vehicle id="178" type="truck" depart="402.35">
        <route edges="D2C2 C2D2 D2C2 C2C1 C1C0 C0B0 B0B1"/>
    </vehicle>
    <vehicle id="179" type="car" depart="403.77">
        <route edges="B2B1 B1C1 C1C2 C2B2 B2A2"/>
    </vehicle>
    <vehicle id="180" type="bus" depart="405.02">
        <route edges="D2E2 E2E1 E1E0 E0D0 D0C0 C0B0"/>
    </vehicle>
    <vehicle id="181" type="truck" depart="406.32">
        <route edges="A1B1 B1C1 C1D1 D1C1 C1B1 B1C1"/>
    </vehicle>
    <vehicle id="182" type="car" depart="407.47">
        <route edges="D0D1 D1D2 D2E2 E2E1 E1E0"/>
    </vehicle>
    <vehicle id="183" type="bus" depart="408.34">
        <route edges="B0C0 C0D0 D0D1"/>
    </vehicle>
    <vehicle id="184" type="truck" depart="409.36">
        <route edges="A2B2 B2C2 C2D2 D2D1 D1E1 E1E0"/>
    </vehicle>
    <vehicle id="185" type="bus" depart="410.27">
        <route edges="E1D1 D1C1 C1C0 C0C1 C1C0 C0D0 D0C0"/>
    </vehicle>
    <vehicle id="186" type="car" depart="410.87">
        <route edges="E0D0 D0C0 C0C1 C1C2 C2D2 D2C2 C2D2"/>
    </vehicle>
    <vehicle id="187" type="bus" depart="411.70">
        <route edges="D2C2 C2D2 D2C2 C2C1 C1C0 C0B0 B0B1"/>
    </vehicle>
    <vehicle id="188" type="truck" depart="412.30">
        <route edges="C0D0 D0D1 D1E1"/>
    </vehicle>
    <vehicle id="189" type="car" depart="413.51">
        <route edges="E1E0 E0D0"/>
    </vehicle>
    <vehicle id="190" type="bus" depart="414.48">
        <route edges="E1D1 D1C1 C1C0 C0C1 C1C0 C0D0 D0C0"/>
    </vehicle>
    <vehicle id="191" type="car" depart="415.68">
        <route edges="A2A1 A1B1"/>
    </vehicle>
    <vehicle id="192" type="car" depart="417.17">
        <route edges="D0E0 E0E1 E1E2 E2D2 D2E2"/>
    </vehicle>
    <vehicle id="193" type="bus" depart="417.93">
        <route edges="D1C1 C1B1 B1B2 B2C2 C2D2"/>
    </vehicle>
    <vehicle id="194" type="bus" depart="418.48">
        <route edges="C1C0 C0C1 C1C0 C0B0"/>
    </vehicle>
    <vehicle id="195" type="bus" depart="419.30">
        <route edges="D2E2 E2E1 E1E2 E2D2 D2C2 C2B2"/>
    </vehicle>
    <vehicle id="196" type="bus" depart="420.45">
        <route edges="A0B0 B0C0 C0B0 B0B1"/>
    </vehicle>
    <vehicle id="197" type="bus" depart="421.07">
        <route edges="E2D2 D2E2 E2E1 E1D1 D1C1 C1B1 B1A1"/>
    </vehicle>
    <vehicle id="198" type="truck" depart="422.53">
        <route edges="D1C1 C1D1 D1D2 D2C2 C2B2"/>
    </vehicle>
    <vehicle id="199" type="truck" depart="423.83">
        <route edges="E1E0 E0D0 D0E0 E0E1"/>
    </vehicle>
    <vehicle id="200" type="car" depart="424.82">
        <route edges="B2B1 B1C1 C1C2 C2B2 B2A2"/>
    </vehicle>
    <vehicle id="201" type="truck" depart="425.35">
        <route edges="C2C1 C1C0 C0C1 C1C2 C2D2 D2C2 C2B2"/>
    </vehicle>
    <vehicle id="202" type="truck" depart="425.98">
        <route edges="B1A1 A1B1 B1C1 C1C0"/>
    </vehicle>
    <vehicle id="203" type="truck" depart="427.34">
        <route edges="D1C1 C1B1 B1A1"/>
    </vehicle>
    <vehicle id="204" type="car" depart="428.34">
        <route edges="B1A1 A1A2 A2B2"/>
    </vehicle>
    <vehicle id="205" type="truck" depart="428.88">
        <route edges="B1A1 A1A2 A2B2"/>
    </vehicle>
    <vehicle id="206" type="car" depart="429.81">
        <route edges="D1C1 C1D1 D1D2 D2C2 C2B2"/>
    </vehicle>
    <vehicle id="207" type="car" depart="431.08">
        <route edges="E2D2 D2E2 E2E1"/>
    </vehicle>
    <vehicle id="208" type="truck" depart="431.77">
        <route edges="B0C0 C0D0"/>
    </vehicle>
    <vehicle id="209" type="truck" depart="432.86">
        <route edges="A2A1 A1A2 A2B2"/>
    </vehicle>
    <vehicle id="210" type="car" depart="433.48">
        <route edges="A0A1 A1A2"/>
    </vehicle>
    <vehicle id="211" type="car" depart="434.28">
        <route edges="C0D0 D0E0 E0E1"/>
    </vehicle>
    <vehicle id="212" type="truck" depart="435.29">
        <route edges="E2D2 D2E2 E2E1"/>
    </vehicle>
    <vehicle id="213" type="bus" depart="436.05">
        <route edges="E1E0 E0D0"/>
    </vehicle>
    <vehicle id="214" type="truck" depart="437.45">
        <route edges="C1C0 C0C1 C1C0 C0B0"/>
    </vehicle>
    <vehicle id="215" type="bus" depart="438.56">
        <route edges="B1B2 B2C2 C2C1 C1D1 D1D2 D2C2"/>
    </vehicle>
    <vehicle id="216" type="truck" depart="439.55">
        <route edges="A1A2 A2B2 B2B1"/>
    </vehicle>
    <vehicle id="217" type="bus" depart="440.51">
        <route edges="C0C1 C1C2 C2B2 B2B1 B1B2"/>
    </vehicle>
    <vehicle id="218" type="truck" depart="442.01">
        <route edges="B2C2 C2B2"/>
    </vehicle>
    <vehicle id="219" type="car" depart="442.94">
        <route edges="B0C0 C0D0 D0D1 D1D2 D2E2"/>
    </vehicle>
    <vehicle id="220" type="car" depart="444.24">
        <route edges="B0C0 C0D0 D0D1 D1D2 D2E2"/>
    </vehicle>
    <vehicle id="221" type="bus" depart="444.78">
        <route edges="C1B1 B1A1 A1B1 B1B0 B0A0 A0A1 A1A0"/>
    </vehicle>
    <vehicle id="222" type="truck" depart="445.68">
        <route edges="D2D1 D1C1 C1B1"/>
    </vehicle>
    <vehicle id="223" type="bus" depart="446.51">
        <route edges="B2C2 C2C1"/>
    </vehicle>
    <vehicle id="224" type="car" depart="447.39">
        <route edges="E1E2 E2D2 D2E2"/>
    </vehicle>
    <vehicle id="225" type="car" depart="448.78">
        <route edges="B0A0 A0A1 A1A2 A2B2"/>
    </vehicle>
    <vehicle id="226" type="bus" depart="450.21">
        <route edges="E1E2 E2D2 D2D1"/>
    </vehicle>
    <vehicle id="227" type="truck" depart="450.98">
        <route edges="A1A0 A0B0 B0B1 B1B0 B0B1 B1B2 B2C2"/>
    </vehicle>
    <vehicle id="228" type="car" depart="452.07">
        <route edges="C2C1 C1C0 C0B0 B0A0 A0A1 A1A2 A2B2"/>
    </vehicle>
    <vehicle id="229" type="bus" depart="453.12">
        <route edges="C1D1 D1E1 E1E0 E0D0 D0D1"/>
    </vehicle>
    <vehicle id="230" type="truck" depart="454.01">
        <route edges="E1E2 E2D2 D2C2"/>
    </vehicle>
    <vehicle id="231" type="bus" depart="454.82">
        <route edges="B2C2 C2C1"/>
    </vehicle>
    <vehicle id="232" type="truck" depart="455.43">
        <route edges="D2C2 C2C1 C1C0"/>
    </vehicle>
    <vehicle id="233" type="bus" depart="456.34">
        <route edges="E1E2 E2D2 D2C2"/>
    </vehicle>
    <vehicle id="234" type="car" depart="457.16">
        <route edges="A1B1 B1C1 C1D1 D1C1 C1B1 B1C1"/>
    </vehicle>
    <vehicle id="235" type="car" depart="458.11">
        <route edges="D2C2 C2C1 C1C0"/>
    </vehicle>
    <vehicle id="236" type="truck" depart="458.66">
        <route edges="D1D0 D0D1 D1D2 D2C2 C2B2 B2A2"/>
    </vehicle>
    <vehicle id="237" type="bus" depart="459.92">
        <route edges="B1B2 B2C2"/>
    </vehicle>
    <vehicle id="238" type="bus" depart="460.97">
        <route edges="D2C2 C2D2 D2D1 D1C1 C1B1 B1A1 A1A2"/>
    </vehicle>
    <vehicle id="239" type="car" depart="462.44">
        <route edges="B2A2 A2A1 A1A0 A0B0"/>
    </vehicle>
    <vehicle id="240" type="car" depart="463.59">
        <route edges="E2E1 E1E0 E0D0 D0E0 E0E1 E1D1"/>
    </vehicle>
    <vehicle id="241" type="bus" depart="465.02">
        <route edges="C2C1 C1C0 C0B0 B0A0 A0A1"/>
    </vehicle>
    <vehicle id="242" type="truck" depart="465.90">
        <route edges="E1E0 E0D0 D0C0 C0B0 B0A0"/>
    </vehicle>
    <vehicle id="243" type="bus" depart="467.29">
        <route edges="D2D1 D1C1 C1B1"/>
    </vehicle>
    <vehicle id="244" type="truck" depart="468.72">
        <route edges="D0E0 E0E1 E1E2 E2D2 D2E2"/>
    </vehicle>
    <vehicle id="245" type="car" depart="469.70">
        <route edges="D2E2 E2E1 E1E2 E2D2 D2C2 C2B2"/>
    </vehicle>
    <vehicle id="246" type="truck" depart="470.38">
        <route edges="C1D1 D1E1 E1E0 E0D0 D0D1"/>
    </vehicle>
    <vehicle id="247" type="car" depart="471.50">
        <route edges="C1C0 C0C1 C1C0 C0B0"/>
    </vehicle>
    <vehicle id="248" type="car" depart="472.70">
        <route edges="B0B1 B1B2 B2A2 A2A1 A1A0 A0B0"/>
    </vehicle>
    <vehicle id="249" type="truck" depart="473.72">
        <route edges="B1B0 B0A0 A0A1 A1B1"/>
    </vehicle>
    <vehicle id="250" type="truck" depart="474.71">
        <route edges="C1C2 C2D2 D2E2 E2E1 E1E0"/>
    </vehicle>
    <vehicle id="251" type="car" depart="475.32">
        <route edges="A1A2 A2B2 B2B1"/>
    </vehicle>
    <vehicle id="252" type="car" depart="476.38">
        <route edges="A2A1 A1A2 A2B2"/>
    </vehicle>
    <vehicle id="253" type="car" depart="477.10">
        <route edges="A1B1 B1A1 A1B1 B1A1 A1B1 B1A1"/>
    </vehicle>
    <vehicle id="254" type="bus" depart="477.93">
        <route edges="A1A2 A2B2 B2C2 C2C1 C1C2 C2C1"/>
    </vehicle>
    <vehicle id="255" type="truck" depart="478.66">
        <route edges="A1A0 A0B0"/>
    </vehicle>
    <vehicle id="256" type="car" depart="479.77">
        <route edges="B1B0 B0A0 A0A1 A1B1"/>
    </vehicle>
    <vehicle id="257" type="bus" depart="480.58">
        <route edges="A0A1 A1B1"/>
    </vehicle>
    <vehicle id="258" type="truck" depart="481.32">
        <route edges="C1D1 D1C1"/>
    </vehicle>
    <vehicle id="259" type="truck" depart="482.26">
        <route edges="C2D2 D2E2 E2E1 E1D1 D1D2 D2D1"/>
    </vehicle>
    <vehicle id="260" type="bus" depart="483.68">
        <route edges="B0A0 A0A1 A1B1 B1B2 B2C2 C2D2 D2D1"/>
    </vehicle>
    <vehicle id="261" type="truck" depart="484.63">
        <route edges="C2B2 B2C2 C2C1"/>
    </vehicle>
    <vehicle id="262" type="truck" depart="485.48">
        <route edges="C1B1 B1A1 A1B1 B1B0 B0A0 A0A1 A1A0"/>
    </vehicle>
    <vehicle id="263" type="bus" depart="486.52">