<?xml version="1.0" ?>
<routes>
    <vType id="car" accel="2.6" decel="4.5" sigma="0.5" length="5" maxSpeed="70"/>
    <vType id="bus" accel="1.2" decel="4.0" sigma="0.5" length="12" maxSpeed="50"/>
    <vType id="truck" accel="1.0" decel="4.0" sigma="0.5" length="8" maxSpeed="60"/>
    <vehicle id="0" type="bus" depart="0.00">
        <route edges="E1E0 E0D0"/>
    </vehicle>
    <vehicle id="1" type="bus" depart="3.66">
        <route edges="D2E2 E2E1 E1E2"/>
    </vehicle>
    <vehicle id="2" type="car" depart="7.39">
        <route edges="D2C2 C2B2 B2A2 A2A1 A1A0 A0B0"/>
    </vehicle>
    <vehicle id="3" type="bus" depart="11.62">
        <route edges="D2E2 E2E1 E1E2"/>
    </vehicle>
    <vehicle id="4" type="truck" depart="15.74">
        <route edges="B2C2 C2D2 D2D1 D1E1"/>
    </vehicle>
    <vehicle id="5" type="truck" depart="19.34">
        <route edges="E0D0 D0D1 D1D2 D2D1"/>
    </vehicle>
    <vehicle id="6" type="bus" depart="23.78">
        <route edges="D1D0 D0D1 D1D0 D0C0 C0B0 B0C0 C0C1"/>
    </vehicle>
    <vehicle id="7" type="bus" depart="27.62">
        <route edges="A1B1 B1B0"/>
    </vehicle>
    <vehicle id="8" type="truck" depart="31.81">
        <route edges="B1A1 A1A0 A0B0 B0C0 C0B0 B0A0 A0A1"/>
    </vehicle>
    <vehicle id="9" type="bus" depart="35.55">
        <route edges="E2D2 D2E2 E2E1 E1E2 E2D2 D2E2 E2E1"/>
    </vehicle>
    <vehicle id="10" type="car" depart="39.75">
        <route edges="B1B2 B2C2 C2B2 B2A2 A2A1 A1A0 A0B0"/>
    </vehicle>
    <vehicle id="11" type="car" depart="43.78">
        <route edges="E1D1 D1D0"/>
    </vehicle>
    <vehicle id="12" type="bus" depart="47.41">
        <route edges="D0E0 E0E1"/>
    </vehicle>
    <vehicle id="13" type="bus" depart="51.14">
        <route edges="D1D0 D0D1 D1D2 D2C2 C2C1 C1C2 C2D2"/>
    </vehicle>
    <vehicle id="14" type="truck" depart="54.87">
        <route edges="E1E0 E0D0 D0D1 D1D0 D0E0"/>
    </vehicle>
    <vehicle id="15" type="car" depart="58.92">
        <route edges="A2B2 B2A2 A2A1 A1A2"/>
    </vehicle>
    <vehicle id="16" type="truck" depart="62.54">
        <route edges="C2D2 D2E2 E2E1 E1E2 E2D2"/>
    </vehicle>
    <vehicle id="17" type="bus" depart="66.30">
        <route edges="E2D2 D2C2 C2B2 B2B1 B1B0"/>
    </vehicle>
    <vehicle id="18" type="car" depart="70.51">
        <route edges="D0E0 E0E1 E1D1 D1E1 E1D1"/>
    </vehicle>
    <vehicle id="19" type="truck" depart="74.88">
        <route edges="D1D2 D2C2 C2B2 B2C2 C2B2 B2A2"/>
    </vehicle>
    <vehicle id="20" type="car" depart="78.64">
        <route edges="B2A2 A2A1 A1A0 A0B0 B0B1"/>
    </vehicle>
    <vehicle id="21" type="truck" depart="82.49">
        <route edges="E0E1 E1E0 E0D0 D0E0 E0E1 E1E0"/>
    </vehicle>
    <vehicle id="22" type="car" depart="86.62">
        <route edges="D1D0 D0D1 D1D0 D0C0 C0B0 B0C0 C0C1"/>
    </vehicle>
    <vehicle id="23" type="bus" depart="91.08">
        <route edges="A1B1 B1A1 A1A2 A2B2 B2C2 C2D2"/>
    </vehicle>
    <vehicle id="24" type="car" depart="94.81">
        <route edges="A2A1 A1B1 B1B2 B2B1 B1B2 B2A2 A2A1"/>
    </vehicle>
    <vehicle id="25" type="bus" depart="98.49">
        <route edges="E1E0 E0D0 D0C0 C0B0 B0B1"/>
    </vehicle>
    <vehicle id="26" type="truck" depart="102.58">
        <route edges="D1D0 D0D1 D1D0 D0C0 C0B0 B0C0 C0C1"/>
    </vehicle>
    <vehicle id="27" type="bus" depart="106.19">
        <route edges="D0D1 D1D2 D2E2"/>
    </vehicle>
    <vehicle id="28" type="car" depart="109.76">
        <route edges="E0E1 E1E0 E0D0 D0E0 E0E1 E1E0"/>
    </vehicle>
    <vehicle id="29" type="car" depart="113.76">
        <route edges="D0E0 E0E1 E1D1 D1E1 E1D1"/>
    </vehicle>
    <vehicle id="30" type="car" depart="117.32">
        <route edges="D0C0 C0B0 B0B1"/>
    </vehicle>
    <vehicle id="31" type="truck" depart="121.17">
        <route edges="B0B1 B1C1"/>
    </vehicle>
    <vehicle id="32" type="truck" depart="124.92">
        <route edges="E1E0 E0D0 D0C0 C0B0 B0B1"/>
    </vehicle>
    <vehicle id="33" type="car" depart="128.84">
        <route edges="E1E0 E0D0 D0D1 D1D0 D0E0"/>
    </vehicle>
    <vehicle id="34" type="truck" depart="132.90">
        <route edges="B2C2 C2B2"/>
    </vehicle>
    <vehicle id="35" type="car" depart="137.40">
        <route edges="D0C0 C0B0 B0B1 B1A1 A1B1 B1C1"/>
    </vehicle>
    <vehicle id="36" type="car" depart="141.08">
        <route edges="B0A0 A0A1 A1A2 A2B2 B2B1"/>
    </vehicle>
    <vehicle id="37" type="truck" depart="145.36">
        <route edges="C0D0 D0E0 E0E1 E1E0 E0D0 D0E0 E0E1"/>
    </vehicle>
    <vehicle id="38" type="car" depart="149.74">
        <route edges="C1C2 C2C1 C1D1 D1C1 C1C0 C0B0"/>
    </vehicle>
    <vehicle id="39" type="truck" depart="153.64">
        <route edges="E0E1 E1D1 D1C1 C1C0 C0C1 C1D1 D1E1"/>
    </vehicle>
    <vehicle id="40" type="car" depart="157.37">
        <route edges="D1E1 E1E2"/>
    </vehicle>
    <vehicle id="41" type="truck" depart="161.70">
        <route edges="D0D1 D1D2 D2E2"/>
    </vehicle>
    <vehicle id="42" type="bus" depart="166.17">
        <route edges="B2A2 A2A1 A1A2 A2B2 B2B1 B1A1 A1A2"/>
    </vehicle>
    <vehicle id="43" type="truck" depart="170.64">
        <route edges="C1C2 C2C1 C1D1"/>
    </vehicle>
    <vehicle id="44" type="bus" depart="174.34">
        <route edges="A2A1 A1B1 B1B2 B2B1 B1B2 B2A2 A2A1"/>
    </vehicle>
    <vehicle id="45" type="truck" depart="178.35">
        <route edges="D2C2 C2B2"/>
    </vehicle>
    <vehicle id="46" type="car" depart="182.74">
        <route edges="D0D1 D1D0 D0C0 C0C1 C1B1"/>
    </vehicle>
    <vehicle id="47" type="truck" depart="184.90">
        <route edges="B2A2 A2A1 A1A0 A0B0 B0B1"/>
    </vehicle>
    <vehicle id="48" type="truck" depart="186.50">
        <route edges="C1C2 C2C1 C1D1 D1C1 C1C0 C0B0"/>
    </vehicle>
    <vehicle id="49" type="truck" depart="188.70">
        <route edges="B2C2 C2B2"/>
    </vehicle>
    <vehicle id="50" type="bus" depart="190.80">
        <route edges="A0B0 B0A0 A0A1 A1A0 A0B0 B0C0"/>
    </vehicle>
    <vehicle id="51" type="car" depart="192.39">
        <route edges="B1B0 B0A0 A0A1 A1A2 A2B2 B2A2 A2A1"/>
    </vehicle>
    <vehicle id="52" type="truck" depart="194.55">
        <route edges="C0C1 C1D1 D1E1 E1D1"/>
    </vehicle>
    <vehicle id="53" type="bus" depart="196.43">
        <route edges="C1D1 D1E1 E1E2 E2D2 D2C2 C2C1 C1C2"/>
    </vehicle>
    <vehicle id="54" type="bus" depart="198.43">
        <route edges="B0B1 B1C1"/>
    </vehicle>
    <vehicle id="55" type="bus" depart="200.42">
        <route edges="A1A2 A2B2 B2A2 A2A1 A1A2"/>
    </vehicle>
    <vehicle id="56" type="car" depart="202.08">
        <route edges="B0B1 B1C1"/>
    </vehicle>
    <vehicle id="57" type="car" depart="203.73">
        <route edges="C2D2 D2E2 E2E1 E1E2 E2D2"/>
    </vehicle>
    <vehicle id="58" type="truck" depart="205.64">
        <route edges="D0D1 D1D2 D2E2"/>
    </vehicle>
    <vehicle id="59" type="car" depart="207.27">
        <route edges="D1E1 E1E2 E2D2 D2E2 E2E1 E1D1 D1E1"/>
    </vehicle>
    <vehicle id="60" type="truck" depart="209.02">
        <route edges="D0E0 E0E1"/>
    </vehicle>
    <vehicle id="61" type="car" depart="211.45">
        <route edges="D0C0 C0B0 B0B1 B1A1 A1B1 B1C1"/>
    </vehicle>
    <vehicle id="62" type="truck" depart="213.56">
        <route edges="C0D0 D0C0 C0B0"/>
    </vehicle>
    <vehicle id="63" type="bus" depart="216.00">
        <route edges="B2C2 C2D2"/>
    </vehicle>
    <vehicle id="64" type="car" depart="217.89">
        <route edges="C1C2 C2C1 C1D1 D1C1 C1C0 C0B0"/>
    </vehicle>
    <vehicle id="65" type="truck" depart="220.32">
        <route edges="C2B2 B2C2"/>
    </vehicle>
    <vehicle id="66" type="car" depart="222.33">
        <route edges="B2A2 A2A1 A1A2 A2B2 B2B1 B1A1 A1A2"/>
    </vehicle>
    <vehicle id="67" type="bus" depart="224.01">
        <route edges="D1D0 D0D1 D1D0 D0C0 C0B0 B0C0 C0C1"/>
    </vehicle>
    <vehicle id="68" type="bus" depart="225.92">
        <route edges="B1A1 A1A0 A0B0 B0C0 C0B0 B0A0 A0A1"/>
    </vehicle>
    <vehicle id="69" type="bus" depart="227.93">
        <route edges="B0C0 C0C1 C1B1 B1A1 A1B1"/>
    </vehicle>
    <vehicle id="70" type="car" depart="229.54">
        <route edges="B0C0 C0C1 C1B1 B1A1 A1B1"/>
    </vehicle>
    <vehicle id="71" type="truck" depart="231.04">
        <route edges="C1C0 C0D0 D0E0 E0E1"/>
    </vehicle>
    <vehicle id="72" type="truck" depart="233.43">
        <route edges="E2D2 D2C2 C2D2 D2C2 C2B2 B2A2 A2A1"/>
    </vehicle>
    <vehicle id="73" type="truck" depart="235.73">
        <route edges="A2B2 B2C2 C2D2 D2E2 E2E1 E1E2"/>
    </vehicle>
    <vehicle id="74" type="car" depart="238.05">
        <route edges="C1D1 D1E1 E1E2 E2D2 D2C2 C2C1 C1C2"/>
    </vehicle>
    <vehicle id="75" type="car" depart="240.35">
        <route edges="B1B2 B2C2 C2B2 B2A2 A2A1 A1A0 A0B0"/>
    </vehicle>
    <vehicle id="76" type="truck" depart="242.48">
        <route edges="A1B1 B1B0"/>
    </vehicle>
    <vehicle id="77" type="bus" depart="244.75">
        <route edges="C2C1 C1B1 B1B2 B2C2 C2D2 D2E2"/>
    </vehicle>
    <vehicle id="78" type="bus" depart="247.05">
        <route edges="A0B0 B0C0"/>
    </vehicle>
    <vehicle id="79" type="bus" depart="249.32">
        <route edges="B1A1 A1A0 A0B0 B0C0 C0B0 B0C0"/>
    </vehicle>
    <vehicle id="80" type="truck" depart="251.52">
        <route edges="D2C2 C2B2"/>
    </vehicle>
    <vehicle id="81" type="truck" depart="254.01">
        <route edges="D2D1 D1E1"/>
    </vehicle>
    <vehicle id="82" type="bus" depart="256.48">
        <route edges="A0B0 B0A0 A0A1"/>
    </vehicle>
    <vehicle id="83" type="car" depart="258.22">
        <route edges="E1E0 E0D0"/>
    </vehicle>
    <vehicle id="84" type="car" depart="260.59">
        <route edges="D2D1 D1E1"/>
    </vehicle>
    <vehicle id="85" type="car" depart="262.95">
        <route edges="C2C1 C1B1"/>
    </vehicle>
    <vehicle id="86" type="car" depart="265.35">
        <route edges="C2B2 B2A2 A2A1 A1A0 A0B0 B0A0 A0A1"/>
    </vehicle>
    <vehicle id="87" type="truck" depart="267.80">
        <route edges="D1D2 D2C2 C2B2 B2C2 C2B2 B2A2"/>
    </vehicle>
    <vehicle id="88" type="truck" depart="270.05">
        <route edges="E1D1 D1C1 C1C2"/>
    </vehicle>
    <vehicle id="89" type="car" depart="272.11">
        <route edges="B1A1 A1A0 A0B0 B0C0 C0B0 B0A0 A0A1"/>
    </vehicle>
    <vehicle id="90" type="car" depart="274.56">
        <route edges="C1D1 D1D2 D2C2 C2C1 C1B1 B1C1 C1B1"/>
    </vehicle>
    <vehicle id="91" type="car" depart="276.48">
        <route edges="E2D2 D2C2 C2D2 D2C2 C2B2 B2A2 A2A1"/>
    </vehicle>
    <vehicle id="92" type="bus" depart="278.81">
        <route edges="B2C2 C2B2"/>
    </vehicle>
    <vehicle id="93" type="bus" depart="280.65">
        <route edges="E2E1 E1E0 E0D0 D0E0"/>
    </vehicle>
    <vehicle id="94" type="truck" depart="282.74">
        <route edges="E1D1 D1D0"/>
    </vehicle>
    <vehicle id="95" type="car" depart="285.22">
        <route edges="A0B0 B0A0 A0A1"/>
    </vehicle>
    <vehicle id="96" type="bus" depart="287.50">
        <route edges="C0D0 D0E0 E0E1 E1E0 E0D0 D0E0 E0E1"/>
    </vehicle>
    <vehicle id="97" type="car" depart="289.28">
        <route edges="A1A0 A0B0 B0C0 C0D0 D0E0 E0E1 E1E2"/>
    </vehicle>
    <vehicle id="98" type="bus" depart="291.68">
        <route edges="D0E0 E0E1 E1E2 E2D2 D2D1"/>
    </vehicle>
    <vehicle id="99" type="truck" depart="293.42">
        <route edges="B0B1 B1B0 B0A0 A0A1 A1B1 B1C1 C1D1"/>
    </vehicle>
    <vehicle id="100" type="car" depart="295.13">
        <route edges="E0D0 D0C0 C0B0 B0A0 A0A1"/>
    </vehicle>
    <vehicle id="101" type="car" depart="297.04">
        <route edges="B1B2 B2C2 C2B2 B2A2 A2A1 A1A0 A0B0"/>
    </vehicle>
    <vehicle id="102" type="truck" depart="298.70">
        <route edges="D1D2 D2C2 C2B2 B2C2 C2B2 B2A2"/>
    </vehicle>
    <vehicle id="103" type="car" depart="300.94">
        <route edges="D1E1 E1E2"/>
    </vehicle>
    <vehicle id="104" type="truck" depart="303.20">
        <route edges="C1C2 C2C1 C1D1"/>
    </vehicle>
    <vehicle id="105" type="bus" depart="305.21">
        <route edges="C2D2 D2E2 E2E1 E1E2 E2D2"/>
    </vehicle>
    <vehicle id="106" type="car" depart="306.99">
        <route edges="E0D0 D0E0 E0E1"/>
    </vehicle>
    <vehicle id="107" type="truck" depart="308.89">
        <route edges="D1E1 E1E0 E0D0 D0E0 E0E1 E1E2 E2D2"/>
    </vehicle>
    <vehicle id="108" type="car" depart="311.39">
        <route edges="C2B2 B2A2 A2A1 A1A2 A2B2 B2A2 A2A1"/>
    </vehicle>
    <vehicle id="109" type="truck" depart="313.74">
        <route edges="A2A1 A1B1 B1B2 B2B1 B1B2 B2A2 A2A1"/>
    </vehicle>
    <vehicle id="110" type="truck" depart="316.08">
        <route edges="B1B0 B0A0 A0A1 A1A2 A2B2 B2A2 A2A1"/>
    </vehicle>
    <vehicle id="111" type="bus" depart="317.88">
        <route edges="B1B0 B0C0 C0C1 C1B1 B1B2 B2B1 B1B0"/>
    </vehicle>
    <vehicle id="112" type="truck" depart="319.74">
        <route edges="B2A2 A2A1 A1A0 A0B0 B0B1"/>
    </vehicle>
    <vehicle id="113" type="truck" depart="322.15">
        <route edges="B1B0 B0C0 C0C1 C1B1 B1B2 B2B1 B1B0"/>
    </vehicle>
    <vehicle id="114" type="truck" depart="323.79">
        <route edges="D2C2 C2B2 B2A2 A2A1 A1A0 A0B0"/>
    </vehicle>
    <vehicle id="115" type="bus" depart="326.09">
        <route edges="E1E2 E2D2 D2D1 D1D0 D0E0 E0E1"/>
    </vehicle>
    <vehicle id="116" type="car" depart="327.67">
        <route edges="C0C1 C1B1 B1A1 A1A2 A2B2 B2C2"/>
    </vehicle>
    <vehicle id="117" type="bus" depart="329.36">
        <route edges="D2E2 E2E1 E1E2"/>
    </vehicle>
    <vehicle id="118" type="car" depart="331.75">
        <route edges="E0E1 E1D1 D1E1 E1E2 E2D2 D2C2"/>
    </vehicle>
    <vehicle id="119" type="truck" depart="333.84">
        <route edges="E0E1 E1D1 D1C1 C1C0 C0C1 C1D1 D1E1"/>
    </vehicle>
    <vehicle id="120" type="truck" depart="335.79">
        <route edges="B0A0 A0A1 A1A2 A2B2"/>
    </vehicle>
    <vehicle id="121" type="bus" depart="337.86">
        <route edges="D1D0 D0D1 D1D2 D2C2 C2C1 C1C2 C2D2"/>
    </vehicle>
    <vehicle id="122" type="car" depart="339.52">
        <route edges="D0D1 D1D0 D0C0 C0C1 C1B1"/>
    </vehicle>
    <vehicle id="123" type="truck" depart="341.57">
        <route edges="C0D0 D0C0 C0B0"/>
    </vehicle>
    <vehicle id="124" type="bus" depart="343.19">
        <route edges="C1C2 C2C1 C1D1 D1C1 C1C0 C0B0"/>
    </vehicle>
    <vehicle id="125" type="truck" depart="345.44">
        <route edges="A2A1 A1B1 B1B2 B2B1 B1B2 B2A2 A2A1"/>
    </vehicle>
    <vehicle id="126" type="bus" depart="346.95">
        <route edges="B2C2 C2D2 D2D1 D1E1"/>
    </vehicle>
    <vehicle id="127" type="car" depart="348.85">
        <route edges="A2B2 B2C2 C2D2 D2E2 E2E1 E1E2"/>
    </vehicle>
    <vehicle id="128" type="bus" depart="350.94">
        <route edges="C2B2 B2C2"/>
    </vehicle>
    <vehicle id="129" type="bus" depart="352.63">
        <route edges="D0E0 E0E1 E1E2 E2D2 D2D1"/>
    </vehicle>
    <vehicle id="130" type="bus" depart="354.54">
        <route edges="B1B2 B2C2 C2B2 B2A2 A2A1 A1A0"/>
    </vehicle>
    <vehicle id="131" type="bus" depart="356.31">
        <route edges="B0B1 B1B0 B0A0 A0A1 A1B1 B1C1 C1D1"/>
    </vehicle>
    <vehicle id="132" type="truck" depart="357.87">
        <route edges="D1D0 D0D1 D1D0 D0C0 C0B0 B0C0 C0C1"/>
    </vehicle>
    <vehicle id="133" type="car" depart="359.64">
        <route edges="D1D2 D2D1 D1D0 D0C0 C0B0"/>
    </vehicle>
    <vehicle id="134" type="bus" depart="361.38">
        <route edges="B2B1 B1B2 B2C2"/>
    </vehicle>
    <vehicle id="135" type="car" depart="363.72">
        <route edges="D0C0 C0B0 B0A0 A0A1 A1A2 A2B2 B2B1"/>
    </vehicle>
    <vehicle id="136" type="bus" depart="365.05">
        <route edges="E1D1 D1D0"/>
    </vehicle>
    <vehicle id="137" type="car" depart="366.38">
        <route edges="B1C1 C1B1 B1A1 A1A2 A2B2"/>
    </vehicle>
    <vehicle id="138" type="bus" depart="367.21">
        <route edges="B0A0 A0A1 A1A2 A2B2"/>
    </vehicle>
    <vehicle id="139" type="bus" depart="368.66">
        <route edges="E0E1 E1D1 D1E1 E1E2 E2D2 D2C2"/>
    </vehicle>
    <vehicle id="140" type="car" depart="369.46">
        <route edges="D0D1 D1D0 D0C0 C0C1 C1B1"/>
    </vehicle>
    <vehicle id="141" type="car" depart="370.18">
        <route edges="E0E1 E1D1 D1C1 C1C0 C0C1 C1D1 D1E1"/>
    </vehicle>
    <vehicle id="142" type="bus" depart="371.39">
        <route edges="C1D1 D1D2 D2C2 C2C1 C1B1 B1C1 C1B1"/>
    </vehicle>
    <vehicle id="143" type="car" depart="372.35">
        <route edges="E1E0 E0D0"/>
    </vehicle>
    <vehicle id="144" type="bus" depart="372.86">
        <route edges="C2D2 D2C2 C2B2 B2C2"/>
    </vehicle>
    <vehicle id="145" type="truck" depart="373.93">
        <route edges="B1B0 B0C0 C0C1 C1B1 B1B2 B2B1 B1B0"/>
    </vehicle>
    <vehicle id="146" type="bus" depart="375.13">
        <route edges="A1A0 A0B0 B0A0 A0A1 A1B1"/>
    </vehicle>
    <vehicle id="147" type="truck" depart="376.47">
        <route edges="B1B2 B2A2 A2A1 A1A0 A0B0 B0B1 B1B0"/>
    </vehicle>
    <vehicle id="148" type="bus" depart="377.50">
        <route edges="E1E2 E2D2"/>
    </vehicle>
    <vehicle id="149" type="bus" depart="378.85">
        <route edges="C1B1 B1B2"/>
    </vehicle>
    <vehicle id="150" type="truck" depart="379.67">
        <route edges="C2C1 C1B1"/>
    </vehicle>
    <vehicle id="151" type="car" depart="380.26">
        <route edges="D1C1 C1B1 B1C1 C1B1 B1B2"/>
    </vehicle>
    <vehicle id="152" type="bus" depart="381.41">
        <route edges="A1B1 B1B0"/>
    </vehicle>
    <vehicle id="153" type="truck" depart="382.51">
        <route edges="D0C0 C0B0 B0A0 A0A1 A1A2 A2B2 B2B1"/>
    </vehicle>
    <vehicle id="154" type="truck" depart="383.47">
        <route edges="B1B2 B2C2 C2B2 B2A2 A2A1 A1A0"/>
    </vehicle>
    <vehicle id="155" type="car" depart="384.21">
        <route edges="E1E0 E0D0 D0D1 D1D0 D0E0"/>
    </vehicle>
    <vehicle id="156" type="bus" depart="385.66">
        <route edges="B1B2 B2A2 A2A1 A1A0 A0B0 B0B1 B1B0"/>
    </vehicle>
    <vehicle id="157" type="bus" depart="386.70">
        <route edges="A0B0 B0A0 A0A1 A1A0 A0B0 B0C0"/>
    </vehicle>
    <vehicle id="158" type="truck" depart="387.45">
        <route edges="D1D0 D0D1 D1D0 D0C0 C0B0 B0C0 C0C1"/>
    </vehicle>
    <vehicle id="159" type="truck" depart="388.94">
        <route edges="C1B1 B1B2"/>
    </vehicle>
    <vehicle id="160" type="car" depart="389.45">
        <route edges="E0E1 E1D1 D1C1 C1C0 C0C1 C1D1 D1E1"/>
    </vehicle>
    <vehicle id="161" type="bus" depart="390.07">
        <route edges="B0A0 A0A1 A1A2 A2B2"/>
    </vehicle>
    <vehicle id="162" type="truck" depart="390.67">
        <route edges="A2A1 A1A2 A2B2"/>
    </vehicle>
    <vehicle id="163" type="car" depart="391.70">
        <route edges="B1A1 A1A0 A0B0 B0C0 C0B0 B0A0 A0A1"/>
    </vehicle>
    <vehicle id="164" type="bus" depart="392.31">
        <route edges="B0A0 A0A1 A1A2 A2B2 B2B1"/>
    </vehicle>
    <vehicle id="165" type="car" depart="392.90">
        <route edges="D1D2 D2D1 D1D0 D0C0 C0B0"/>
    </vehicle>
    <vehicle id="166" type="car" depart="393.55">
        <route edges="C1D1 D1E1 E1E2 E2D2 D2C2 C2C1 C1C2"/>
    </vehicle>
    <vehicle id="167" type="bus" depart="394.36">
        <route edges="C1B1 B1B2"/>
    </vehicle>
    <vehicle id="168" type="truck" depart="395.38">
        <route edges="D2C2 C2B2"/>
    </vehicle>
    <vehicle id="169" type="car" depart="396.86">
        <route edges="A2B2 B2C2 C2D2 D2E2 E2E1 E1E2"/>
    </vehicle>
    <vehicle id="170" type="car" depart="398.19">
        <route edges="E1E0 E0D0 D0D1 D1D0 D0E0"/>
    </vehicle>
    <vehicle id="171" type="truck" depart="398.78">
        <route edges="E1E0 E0D0"/>
    </vehicle>
    <vehicle id="172" type="truck" depart="399.30">
        <route edges="D0C0 C0B0 B0A0 A0A1 A1A2 A2B2 B2B1"/>
    </vehicle>
    <vehicle id="173" type="truck" depart="400.51">
        <route edges="C1D1 D1D2 D2C2 C2C1 C1B1 B1C1 C1B1"/>
    </vehicle>
    <vehicle id="174" type="car" depart="401.81">
        <route edges="A2B2 B2A2 A2A1 A1A2 A2B2"/>
    </vehicle>
    <vehicle id="175" type="bus" depart="402.87">
        <route edges="C2B2 B2A2 A2A1 A1A0 A0B0 B0A0 A0A1"/>
    </vehicle>
    <vehicle id="176" type="truck" depart="404.02">
        <route edges="A0B0 B0C0"/>
    </vehicle>
    <vehicle id="177" type="bus" depart="405.23">
        <route edges="E1E0 E0D0 D0C0 C0B0 B0B1"/>
    </vehicle>
    <vehicle id="178" type="bus" depart="406.65">
        <route edges="B1B2 B2C2 C2B2 B2A2 A2A1 A1A0"/>
    </vehicle>
    <vehicle id="179" type="bus" depart="407.34">
        <route edges="B0B1 B1B0 B0A0 A0A1 A1B1 B1C1 C1D1"/>
    </vehicle>
    <vehicle id="180" type="truck" depart="408.39">
        <route edges="D1D2 D2D1 D1D0 D0C0 C0B0"/>
    </vehicle>
    <vehicle id="181" type="truck" depart="409.08">
        <route edges="B2C2 C2D2"/>
    </vehicle>
    <vehicle id="182" type="car" depart="409.98">
        <route edges="B0A0 A0A1 A1A2 A2B2"/>
    </vehicle>
    <vehicle id="183" type="car" depart="411.09">
        <route edges="C0C1 C1B1 B1A1 A1A2 A2B2 B2C2"/>
    </vehicle>
    <vehicle id="184" type="truck" depart="411.73">
        <route edges="E0E1 E1D1 D1C1 C1C0 C0C1 C1D1 D1E1"/>
    </vehicle>
    <vehicle id="185" type="car" depart="412.73">
        <route edges="C0D0 D0E0 E0E1 E1E2 E2D2"/>
    </vehicle>
    <vehicle id="186" type="car" depart="413.86">
        <route edges="A1A0 A0B0 B0A0 A0A1 A1B1"/>
    </vehicle>
    <vehicle id="187" type="bus" depart="414.68">
        <route edges="B2B1 B1B2 B2C2"/>
    </vehicle>
    <vehicle id="188" type="car" depart="415.47">
        <route edges="D0E0 E0E1 E1D1 D1E1 E1D1"/>
    </vehicle>
    <vehicle id="189" type="bus" depart="416.65">
        <route edges="E0E1 E1D1 D1E1 E1E2 E2D2 D2C2"/>
    </vehicle>
    <vehicle id="190" type="car" depart="417.90">
        <route edges="E1E0 E0D0 D0C0 C0B0 B0B1"/>
    </vehicle>
    <vehicle id="191" type="car" depart="418.90">
        <route edges="D1E1 E1E2"/>
    </vehicle>
    <vehicle id="192" type="bus" depart="419.92">
        <route edges="A0B0 B0A0 A0A1 A1A0 A0B0 B0C0"/>
    </vehicle>
    <vehicle id="193" type="car" depart="420.68">
        <route edges="B1B0 B0C0 C0C1 C1B1 B1B2 B2B1 B1B0"/>
    </vehicle>
    <vehicle id="194" type="truck" depart="421.80">
        <route edges="D2D1 D1D0 D0C0 C0B0 B0A0 A0A1"/>
    </vehicle>
    <vehicle id="195" type="bus" depart="422.97">
        <route edges="E1D1 D1E1 E1E2"/>
    </vehicle>
    <vehicle id="196" type="bus" depart="424.17">
        <route edges="B2A2 A2A1 A1A0 A0B0 B0B1"/>
    </vehicle>
    <vehicle id="197" type="car" depart="424.67">
        <route edges="E0E1 E1D1 D1E1 E1E2 E2D2 D2C2"/>
    </vehicle>
    <vehicle id="198" type="car" depart="425.23">
        <route edges="A2B2 B2C2 C2D2 D2E2 E2E1 E1E2"/>
    </vehicle>
    <vehicle id="199" type="truck" depart="425.91">
        <route edges="B0B1 B1A1 A1A2"/>
    </vehicle>
    <vehicle id="200" type="truck" depart="427.31">
        <route edges="D1C1 C1B1 B1C1 C1B1 B1B2"/>
    </vehicle>
    <vehicle id="201" type="bus" depart="428.43">
        <route edges="A1A0 A0B0 B0C0 C0D0 D0E0 E0E1 E1E2"/>
    </vehicle>
    <vehicle id="202" type="car" depart="429.52">
        <route edges="E2D2 D2C2 C2B2 B2B1 B1B0"/>
    </vehicle>
    <vehicle id="203" type="car" depart="430.26">
        <route edges="A1B1 B1B0"/>
    </vehicle>
    <vehicle id="204" type="car" depart="431.73">
        <route edges="E0E1 E1D1 D1E1 E1E2 E2D2 D2C2"/>
    </vehicle>
    <vehicle id="205" type="car" depart="432.60">
        <route edges="D2E2 E2E1 E1E0 E0D0 D0E0"/>
    </vehicle>
    <vehicle id="206" type="car" depart="433.44">
        <route edges="B1B0 B0C0 C0C1 C1B1 B1B2 B2B1 B1B0"/>
    </vehicle>
    <vehicle id="207" type="car" depart="433.99">
        <route edges="A2B2 B2A2 A2A1 A1A2"/>
    </vehicle>
    <vehicle id="208" type="truck" depart="435.15">
        <route edges="E1E2 E2D2 D2D1 D1D0 D0E0 E0E1"/>
    </vehicle>
    <vehicle id="209" type="car" depart="436.38">
        <route edges="C1C2 C2C1 C1D1"/>
    </vehicle>
    <vehicle id="210" type="bus" depart="437.37">
        <route edges="B0A0 A0A1 A1A2 A2B2"/>
    </vehicle>
    <vehicle id="211" type="car" depart="438.46">
        <route edges="C1D1 D1D2 D2C2 C2C1 C1B1 B1C1 C1B1"/>
    </vehicle>
    <vehicle id="212" type="bus" depart="439.28">
        <route edges="C2D2 D2E2 E2E1 E1E2 E2D2"/>
    </vehicle>
    <vehicle id="213" type="bus" depart="439.96">
        <route edges="E2E1 E1E0 E0D0 D0E0"/>
    </vehicle>
    <vehicle id="214" type="truck" depart="441.24">
        <route edges="B0C0 C0C1 C1B1 B1A1 A1B1"/>
    </vehicle>
    <vehicle id="215" type="bus" depart="442.55">
        <route edges="A2A1 A1A2 A2B2"/>
    </vehicle>
    <vehicle id="216" type="bus" depart="443.55">
        <route edges="E1E0 E0D0 D0C0 C0B0 B0B1"/>
    </vehicle>
    <vehicle id="217" type="truck" depart="444.34">
        <route edges="D0D1 D1D2 D2E2"/>
    </vehicle>
    <vehicle id="218" type="truck" depart="445.01">
        <route edges="B2A2 A2A1 A1A2 A2B2 B2B1 B1A1 A1A2"/>
    </vehicle>
    <vehicle id="219" type="truck" depart="445.87">
        <route edges="D0E0 E0E1"/>
    </vehicle>
    <vehicle id="220" type="car" depart="447.34">
        <route edges="C1D1 D1E1 E1E2 E2D2 D2C2 C2C1 C1C2"/>
    </vehicle>
    <vehicle id="221" type="bus" depart="447.87">
        <route edges="E1E2 E2D2 D2D1 D1D0 D0E0 E0E1"/>
    </vehicle>
    <vehicle id="222" type="bus" depart="449.20">
        <route edges="A1A0 A0B0 B0C0 C0D0 D0E0 E0E1 E1E2"/>
    </vehicle>
    <vehicle id="223" type="car" depart="450.07">
        <route edges="C0D0 D0C0 C0B0"/>
    </vehicle>
    <vehicle id="224" type="bus" depart="451.26">
        <route edges="B2C2 C2D2"/>
    </vehicle>
    <vehicle id="225" type="car" depart="452.06">
        <route edges="A2B2 B2A2 A2A1 A1A2 A2B2"/>
    </vehicle>
    <vehicle id="226" type="truck" depart="452.69">
        <route edges="B2A2 A2A1 A1A0 A0B0"/>
    </vehicle>
    <vehicle id="227" type="truck" depart="454.05">
        <route edges="A2B2 B2C2 C2D2 D2E2 E2E1 E1E2"/>
    </vehicle>
    <vehicle id="228" type="bus" depart="455.27">
        <route edges="E1D1 D1E1 E1E2"/>
    </vehicle>
    <vehicle id="229" type="bus" depart="456.65">
        <route edges="C1D1 D1E1 E1E2 E2D2 D2C2 C2C1 C1C2"/>
    </vehicle>
    <vehicle id="230" type="car" depart="457.75">
        <route edges="D0C0 C0B0 B0B1"/>
    </vehicle>
    <vehicle id="231" type="truck" depart="458.36">
        <route edges="C0D0 D0C0 C0B0"/>
    </vehicle>
    <vehicle id="232" type="bus" depart="458.96">
        <route edges="B1B0 B0C0 C0C1 C1B1 B1B2 B2B1 B1B0"/>
    </vehicle>
    <vehicle id="233" type="truck" depart="459.56">
        <route edges="D0C0 C0B0 B0A0 A0A1 A1A2 A2B2 B2B1"/>
    </vehicle>
    <vehicle id="234" type="bus" depart="460.83">
        <route edges="C2D2 D2C2 C2B2 B2C2"/>
    </vehicle>
    <vehicle id="235" type="truck" depart="461.93">
        <route edges="B1C1 C1B1 B1A1 A1A2 A2B2"/>
    </vehicle>
    <vehicle id="236" type="truck" depart="462.74">
        <route edges="E1E0 E0D0 D0D1 D1D0 D0E0"/>
    </vehicle>
    <vehicle id="237" type="car" depart="464.05">
        <route edges="C0D0 D0E0 E0E1 E1E2 E2D2"/>
    </vehicle>
    <vehicle id="238" type="bus" depart="465.09">
        <route edges="A1A0 A0B0 B0A0 A0A1 A1B1"/>
    </vehicle>
    <vehicle id="239" type="car" depart="466.34">
        <route edges="C0D0 D0E0 E0E1 E1E2 E2D2"/>
    </vehicle>
    <vehicle id="240" type="bus" depart="467.53">
        <route edges="E1E0 E0D0 D0D1 D1D0 D0E0"/>
    </vehicle>
    <vehicle id="241" type="car" depart="469.03">
        <route edges="D0E0 E0E1 E1D1 D1E1 E1D1"/>
    </vehicle>
    <vehicle id="242" type="truck" depart="470.10">
        <route edges="D0C0 C0B0 B0B1"/>
    </vehicle>
    <vehicle id="243" type="truck" depart="471.23">
        <route edges="B0B1 B1B0 B0A0 A0A1 A1B1 B1C1 C1D1"/>
    </vehicle>
    <vehicle id="244" type="truck" depart="472.01">
        <route edges="B2A2 A2A1 A1A0 A0B0 B0B1"/>
    </vehicle>
    <vehicle id="245" type="bus" depart="473.19">
        <route edges="C0C1 C1C0 C0B0 B0A0 A0A1 A1B1"/>
    </vehicle>
    <vehicle id="246" type="bus" depart="473.75">
        <route edges="D0E0 E0E1 E1D1 D1E1 E1D1"/>
    </vehicle>
    <vehicle id="247" type="truck" depart="474.47">
        <route edges="C2C1 C1B1"/>
    </vehicle>
    <vehicle id="248" type="bus" depart="475.92">
        <route edges="E1E2 E2D2"/>
    </vehicle>
    <vehicle id="249" type="bus" depart="476.79">
        <route edges="E1E0 E0D0"/>
    </vehicle>
    <vehicle id="250" type="car" depart="477.71">
        <route edges="D2D1 D1D0 D0C0 C0B0 B0A0 A0A1"/>
    </vehicle>
    <vehicle id="251" type="car" depart="478.71">
        <route edges="D1D2 D2E2 E2E1 E1D1 D1E1 E1D1 D1D2"/>
    </vehicle>
    <vehicle id="252" type="truck" depart="479.37">
        <route edges="B0A0 A0A1 A1A2 A2B2"/>
    </vehicle>
    <vehicle id="253" type="truck" depart="479.91">
        <route edges="C2D2 D2C2 C2B2 B2C2"/>
    </vehicle>
    <vehicle id="254" type="bus" depart="480.47">
        <route edges="B0B1 B1B0 B0A0 A0A1 A1B1 B1C1 C1D1"/>
    </vehicle>
    <vehicle id="255" type="car" depart="481.75">
        <route edges="B1A1 A1A0 A0B0 B0C0 C0B0 B0A0 A0A1"/>
    </vehicle>
    <vehicle id="256" type="car" depart="483.23">
        <route edges="D1D0 D0D1 D1D2 D2C2 C2C1 C1C2 C2D2"/>
    </vehicle>
    <vehicle id="257" type="bus" depart="484.54">
        <route edges="B0A0 A0A1 A1A2 A2B2"/>
    </vehicle>
    <vehicle id="258" type="truck" depart="485.38">
        <route edges="D2D1 D1E1"/>
    </vehicle>