<?xml version="1.0" ?>
<routes>
    <vType id="car" accel="2.6" decel="4.5" sigma="0.5" length="5" maxSpeed="70"/>
    <vType id="bus" accel="1.2" decel="4.0" sigma="0.5" length="12" maxSpeed="50"/>
    <vType id="truck" accel="1.0" decel="4.0" sigma="0.5" length="8" maxSpeed="60"/>
    <vehicle id="0" type="car" depart="0.00">
        <route edges="C1D1 D1E1 E1E2 E2D2"/>
    </vehicle>
    <vehicle id="1" type="truck" depart="3.55">
        <route edges="D1E1 E1D1 D1D2 D2D1 D1D2 D2D1 D1D0"/>
    </vehicle>
    <vehicle id="2" type="bus" depart="7.76">
        <route edges="C1C2 C2D2 D2D1 D1D0 D0C0"/>
    </vehicle>
    <vehicle id="3" type="truck" depart="11.42">
        <route edges="B1B0 B0A0 A0A1 A1A2 A2B2 B2B1 B1B0"/>
    </vehicle>
    <vehicle id="4" type="car" depart="15.90">
        <route edges="C2B2 B2A2 A2A1 A1A2 A2B2"/>
    </vehicle>
    <vehicle id="5" type="truck" depart="19.81">
        <route edges="B1C1 C1D1 D1D0 D0E0"/>
    </vehicle>
    <vehicle id="6" type="truck" depart="23.37">
        <route edges="E0E1 E1E2 E2D2 D2C2 C2B2 B2A2 A2A1"/>
    </vehicle>
    <vehicle id="7" type="truck" depart="27.40">
        <route edges="B1B2 B2C2 C2D2 D2D1 D1D0"/>
    </vehicle>
    <vehicle id="8" type="bus" depart="30.96">
        <route edges="E0E1 E1E2"/>
    </vehicle>
    <vehicle id="9" type="bus" depart="34.90">
        <route edges="D1E1 E1D1 D1D2 D2D1 D1D2 D2D1 D1D0"/>
    </vehicle>
    <vehicle id="10" type="car" depart="38.43">
        <route edges="D2E2 E2E1"/>
    </vehicle>
    <vehicle id="11" type="bus" depart="41.98">
        <route edges="B0B1 B1A1 A1A2 A2B2 B2A2"/>
    </vehicle>
    <vehicle id="12" type="car" depart="46.43">
        <route edges="B2A2 A2A1 A1A2 A2B2 B2C2 C2C1"/>
    </vehicle>
    <vehicle id="13" type="car" depart="50.54">
        <route edges="E2E1 E1E0 E0D0 D0C0 C0D0"/>
    </vehicle>
    <vehicle id="14" type="truck" depart="54.95">
        <route edges="C1C0 C0D0 D0E0"/>
    </vehicle>
    <vehicle id="15" type="truck" depart="59.31">
        <route edges="A1A0 A0B0 B0B1 B1A1"/>
    </vehicle>
    <vehicle id="16" type="car" depart="63.79">
        <route edges="B1A1 A1B1 B1C1 C1D1 D1D0 D0E0"/>
    </vehicle>
    <vehicle id="17" type="bus" depart="67.54">
        <route edges="E0D0 D0C0 C0D0"/>
    </vehicle>
    <vehicle id="18" type="truck" depart="72.00">
        <route edges="B1B2 B2C2 C2B2 B2A2 A2A1"/>
    </vehicle>
    <vehicle id="19" type="car" depart="75.65">
        <route edges="C2D2 D2D1"/>
    </vehicle>
    <vehicle id="20" type="car" depart="79.47">
        <route edges="B1B2 B2C2 C2D2 D2D1 D1D0"/>
    </vehicle>
    <vehicle id="21" type="truck" depart="83.70">
        <route edges="C1B1 B1A1"/>
    </vehicle>
    <vehicle id="22" type="bus" depart="87.46">
        <route edges="D0E0 E0E1 E1D1"/>
    </vehicle>
    <vehicle id="23" type="bus" depart="91.71">
        <route edges="D2D1 D1D0"/>
    </vehicle>
    <vehicle id="24" type="car" depart="95.98">
        <route edges="A1B1 B1B0"/>
    </vehicle>
    <vehicle id="25" type="truck" depart="99.60">
        <route edges="A1B1 B1B0"/>
    </vehicle>
    <vehicle id="26" type="car" depart="103.68">
        <route edges="E0E1 E1E2"/>
    </vehicle>
    <vehicle id="27" type="car" depart="107.33">
        <route edges="B0B1 B1B0 B0B1"/>
    </vehicle>
    <vehicle id="28" type="bus" depart="110.83">
        <route edges="C0B0 B0C0 C0D0 D0E0 E0E1"/>
    </vehicle>
    <vehicle id="29" type="truck" depart="115.26">
        <route edges="B2A2 A2A1 A1A0"/>
    </vehicle>
    <vehicle id="30" type="car" depart="118.84">
        <route edges="B2A2 A2A1 A1A0"/>
    </vehicle>
    <vehicle id="31" type="bus" depart="122.61">
        <route edges="B1C1 C1C0 C0B0 B0C0 C0D0 D0E0"/>
    </vehicle>
    <vehicle id="32" type="bus" depart="126.80">
        <route edges="B1B0 B0A0 A0A1"/>
    </vehicle>
    <vehicle id="33" type="bus" depart="130.64">
        <route edges="B1B0 B0A0 A0A1"/>
    </vehicle>
    <vehicle id="34" type="truck" depart="135.06">
        <route edges="A1A2 A2B2 B2C2 C2D2"/>
    </vehicle>
    <vehicle id="35" type="car" depart="139.51">
        <route edges="B2C2 C2D2"/>
    </vehicle>
    <vehicle id="36" type="bus" depart="143.25">
        <route edges="E1E2 E2D2 D2E2"/>
    </vehicle>
    <vehicle id="37" type="bus" depart="146.86">
        <route edges="B2C2 C2B2"/>
    </vehicle>
    <vehicle id="38" type="car" depart="150.93">
        <route edges="D1D2 D2E2 E2E1 E1E0 E0D0 D0C0 C0B0"/>
    </vehicle>
    <vehicle id="39" type="truck" depart="155.22">
        <route edges="B1B0 B0A0 A0A1 A1A2 A2B2 B2B1 B1B0"/>
    </vehicle>
    <vehicle id="40" type="bus" depart="158.94">
        <route edges="B0A0 A0A1 A1A2 A2B2 B2C2 C2B2"/>
    </vehicle>
    <vehicle id="41" type="truck" depart="162.86">
        <route edges="E1E0 E0D0 D0D1"/>
    </vehicle>
    <vehicle id="42" type="car" depart="166.97">
        <route edges="E0E1 E1E0 E0D0 D0E0 E0E1 E1D1 D1D2"/>
    </vehicle>
    <vehicle id="43" type="bus" depart="170.80">
        <route edges="C1B1 B1C1 C1D1 D1D0 D0E0"/>
    </vehicle>
    <vehicle id="44" type="truck" depart="174.40">
        <route edges="B2A2 A2A1 A1A0"/>
    </vehicle>
    <vehicle id="45" type="bus" depart="178.17">
        <route edges="A2A1 A1B1 B1B0"/>
    </vehicle>
    <vehicle id="46" type="car" depart="182.51">
        <route edges="B0B1 B1B0 B0B1"/>
    </vehicle>
    <vehicle id="47" type="car" depart="184.66">
        <route edges="C1C2 C2D2 D2D1 D1D0 D0C0"/>
    </vehicle>
    <vehicle id="48" type="bus" depart="186.62">
        <route edges="A0B0 B0B1 B1B2 B2C2 C2C1"/>
    </vehicle>
    <vehicle id="49" type="bus" depart="188.84">
        <route edges="C0C1 C1B1 B1C1"/>
    </vehicle>
    <vehicle id="50" type="car" depart="190.38">
        <route edges="C2D2 D2D1"/>
    </vehicle>
    <vehicle id="51" type="car" depart="192.67">
        <route edges="D0D1 D1D2"/>
    </vehicle>
    <vehicle id="52" type="truck" depart="194.67">
        <route edges="B2C2 C2B2"/>
    </vehicle>
    <vehicle id="53" type="bus" depart="196.77">
        <route edges="B1B0 B0A0 A0A1"/>
    </vehicle>
    <vehicle id="54" type="bus" depart="199.16">
        <route edges="C1C2 C2D2 D2D1 D1D0 D0C0"/>
    </vehicle>
    <vehicle id="55" type="truck" depart="201.44">
        <route edges="B1B0 B0A0 A0A1 A1A2 A2B2 B2B1 B1B0"/>
    </vehicle>
    <vehicle id="56" type="car" depart="203.00">
        <route edges="A2B2 B2B1 B1B0 B0A0 A0A1 A1A0"/>
    </vehicle>
    <vehicle id="57" type="car" depart="204.57">
        <route edges="A1B1 B1A1 A1A2 A2B2 B2B1 B1A1 A1A2"/>
    </vehicle>
    <vehicle id="58" type="car" depart="206.68">
        <route edges="D2C2 C2C1 C1C0 C0B0 B0A0"/>
    </vehicle>
    <vehicle id="59" type="car" depart="208.84">
        <route edges="C2D2 D2D1"/>
    </vehicle>
    <vehicle id="60" type="truck" depart="210.73">
        <route edges="B2B1 B1C1 C1D1 D1E1 E1E2 E2D2 D2C2"/>
    </vehicle>
    <vehicle id="61" type="truck" depart="212.38">
        <route edges="C1D1 D1E1 E1E2 E2D2"/>
    </vehicle>
    <vehicle id="62" type="car" depart="214.39">
        <route edges="D1E1 E1E0 E0D0 D0C0 C0B0 B0B1"/>
    </vehicle>
    <vehicle id="63" type="truck" depart="216.35">
        <route edges="D1C1 C1B1 B1B0 B0B1"/>
    </vehicle>
    <vehicle id="64" type="car" depart="218.03">
        <route edges="A1A2 A2B2 B2C2 C2D2"/>
    </vehicle>
    <vehicle id="65" type="bus" depart="219.74">
        <route edges="D1C1 C1B1 B1B0 B0B1"/>
    </vehicle>
    <vehicle id="66" type="truck" depart="221.59">
        <route edges="C0B0 B0C0 C0D0 D0E0 E0E1"/>
    </vehicle>
    <vehicle id="67" type="truck" depart="223.15">
        <route edges="D2D1 D1D0 D0C0 C0D0"/>
    </vehicle>
    <vehicle id="68" type="car" depart="225.42">
        <route edges="D0E0 E0E1 E1E2 E2D2"/>
    </vehicle>
    <vehicle id="69" type="bus" depart="227.10">
        <route edges="D2E2 E2E1"/>
    </vehicle>
    <vehicle id="70" type="car" depart="229.10">
        <route edges="D0C0 C0B0 B0A0 A0A1 A1A2 A2B2 B2C2"/>
    </vehicle>
    <vehicle id="71" type="truck" depart="230.96">
        <route edges="D1D2 D2E2 E2E1 E1E0 E0D0 D0C0 C0B0"/>
    </vehicle>
    <vehicle id="72" type="car" depart="232.62">
        <route edges="E1E0 E0D0 D0C0 C0C1"/>
    </vehicle>
    <vehicle id="73" type="truck" depart="234.55">
        <route edges="C1C2 C2B2 B2A2 A2A1"/>
    </vehicle>
    <vehicle id="74" type="bus" depart="236.94">
        <route edges="E1D1 D1D0"/>
    </vehicle>
    <vehicle id="75" type="bus" depart="238.91">
        <route edges="D2E2 E2E1"/>
    </vehicle>
    <vehicle id="76" type="car" depart="240.63">
        <route edges="A1A0 A0B0 B0A0 A0A1 A1B1"/>
    </vehicle>
    <vehicle id="77" type="car" depart="242.60">
        <route edges="A1A2 A2B2 B2C2 C2D2"/>
    </vehicle>
    <vehicle id="78" type="car" depart="244.19">
        <route edges="A1A0 A0B0 B0A0 A0A1 A1B1"/>
    </vehicle>
    <vehicle id="79" type="truck" depart="245.93">
        <route edges="C1C2 C2D2 D2D1 D1D0 D0C0"/>
    </vehicle>
    <vehicle id="80" type="truck" depart="247.59">
        <route edges="A1B1 B1A1 A1A2 A2B2 B2B1 B1A1 A1A2"/>
    </vehicle>
    <vehicle id="81" type="bus" depart="249.45">
        <route edges="E1E2 E2D2 D2E2"/>
    </vehicle>
    <vehicle id="82" type="truck" depart="251.02">
        <route edges="E1D1 D1D0"/>
    </vehicle>
    <vehicle id="83" type="truck" depart="253.52">
        <route edges="C1D1 D1E1 E1E2 E2D2"/>
    </vehicle>
    <vehicle id="84" type="car" depart="255.28">
        <route edges="B2A2 A2A1 A1B1 B1C1 C1C2 C2D2 D2C2"/>
    </vehicle>
    <vehicle id="85" type="bus" depart="257.21">
        <route edges="E0E1 E1E2 E2D2 D2C2 C2B2 B2A2 A2A1"/>
    </vehicle>
    <vehicle id="86" type="bus" depart="258.89">
        <route edges="A1A2 A2B2 B2C2 C2D2 D2C2 C2C1 C1C2"/>
    </vehicle>
    <vehicle id="87" type="car" depart="261.36">
        <route edges="B2C2 C2D2"/>
    </vehicle>
    <vehicle id="88" type="bus" depart="263.82">
        <route edges="D2D1 D1D0 D0E0 E0E1 E1E2"/>
    </vehicle>
    <vehicle id="89" type="truck" depart="266.23">
        <route edges="D0D1 D1D2"/>
    </vehicle>
    <vehicle id="90" type="bus" depart="267.74">
        <route edges="E1E2 E2D2 D2E2"/>
    </vehicle>
    <vehicle id="91" type="car" depart="269.62">
        <route edges="C2C1 C1C2 C2B2 B2B1 B1C1 C1B1"/>
    </vehicle>
    <vehicle id="92" type="truck" depart="271.54">
        <route edges="C1C0 C0C1"/>
    </vehicle>
    <vehicle id="93" type="bus" depart="273.99">
        <route edges="B1A1 A1A2 A2B2 B2B1 B1B2"/>
    </vehicle>
    <vehicle id="94" type="truck" depart="275.54">
        <route edges="E2E1 E1E2 E2D2"/>
    </vehicle>
    <vehicle id="95" type="bus" depart="277.06">
        <route edges="A1A0 A0B0 B0A0 A0A1 A1A2 A2B2"/>
    </vehicle>
    <vehicle id="96" type="car" depart="278.73">
        <route edges="D0C0 C0B0 B0A0 A0A1 A1A2 A2B2 B2C2"/>
    </vehicle>
    <vehicle id="97" type="truck" depart="280.96">
        <route edges="B0B1 B1A1 A1A2 A2B2 B2A2"/>
    </vehicle>
    <vehicle id="98" type="bus" depart="282.99">
        <route edges="C2C1 C1C2 C2B2"/>
    </vehicle>
    <vehicle id="99" type="truck" depart="285.18">
        <route edges="B2B1 B1C1 C1C2 C2B2 B2A2 A2A1"/>
    </vehicle>
    <vehicle id="100" type="bus" depart="287.56">
        <route edges="B0B1 B1A1 A1A2 A2B2 B2A2"/>
    </vehicle>
    <vehicle id="101" type="car" depart="289.90">
        <route edges="C0D0 D0D1 D1D0 D0D1 D1E1 E1E0"/>
    </vehicle>
    <vehicle id="102" type="bus" depart="292.22">
        <route edges="C1B1 B1C1 C1D1 D1D0 D0E0"/>
    </vehicle>
    <vehicle id="103" type="bus" depart="294.42">
        <route edges="B0C0 C0B0 B0B1 B1B0 B0A0 A0A1 A1B1"/>
    </vehicle>
    <vehicle id="104" type="truck" depart="296.79">
        <route edges="D1C1 C1B1 B1B0 B0B1"/>
    </vehicle>
    <vehicle id="105" type="car" depart="299.24">
        <route edges="D2C2 C2C1 C1C0 C0B0 B0A0"/>
    </vehicle>
    <vehicle id="106" type="bus" depart="301.69">
        <route edges="D0D1 D1D2"/>
    </vehicle>
    <vehicle id="107" type="bus" depart="303.93">
        <route edges="A2B2 B2A2 A2A1 A1B1 B1A1"/>
    </vehicle>
    <vehicle id="108" type="bus" depart="306.32">
        <route edges="C0B0 B0C0 C0D0 D0E0 E0E1"/>
    </vehicle>
    <vehicle id="109" type="car" depart="308.55">
        <route edges="A1A2 A2B2 B2C2 C2D2 D2C2 C2C1 C1C2"/>
    </vehicle>
    <vehicle id="110" type="truck" depart="310.78">
        <route edges="A1A0 A0B0 B0A0 A0A1 A1B1"/>
    </vehicle>
    <vehicle id="111" type="bus" depart="312.96">
        <route edges="B1A1 A1A2 A2B2 B2B1 B1B2"/>
    </vehicle>
    <vehicle id="112" type="bus" depart="315.41">
        <route edges="C2C1 C1C2 C2B2 B2B1 B1C1 C1B1"/>
    </vehicle>
    <vehicle id="113" type="car" depart="317.45">
        <route edges="B0B1 B1A1 A1A2 A2B2 B2A2"/>
    </vehicle>
    <vehicle id="114" type="bus" depart="319.26">
        <route edges="B2C2 C2B2"/>
    </vehicle>
    <vehicle id="115" type="car" depart="320.89">
        <route edges="D1C1 C1C0 C0B0"/>
    </vehicle>
    <vehicle id="116" type="bus" depart="322.92">
        <route edges="B0A0 A0A1 A1A2 A2B2 B2C2 C2B2"/>
    </vehicle>
    <vehicle id="117" type="car" depart="324.54">
        <route edges="E0E1 E1E2"/>
    </vehicle>
    <vehicle id="118" type="truck" depart="327.02">
        <route edges="D0E0 E0E1 E1D1"/>
    </vehicle>
    <vehicle id="119" type="truck" depart="328.96">
        <route edges="B0A0 A0A1 A1A0 A0B0"/>
    </vehicle>
    <vehicle id="120" type="car" depart="331.36">
        <route edges="E1D1 D1E1 E1E0 E0D0 D0D1 D1C1 C1C0"/>
    </vehicle>
    <vehicle id="121" type="bus" depart="333.02">
        <route edges="E1E0 E0D0 D0D1"/>
    </vehicle>
    <vehicle id="122" type="bus" depart="334.73">
        <route edges="A1A2 A2B2 B2C2 C2D2 D2E2 E2E1"/>
    </vehicle>
    <vehicle id="123" type="car" depart="336.52">
        <route edges="A1A0 A0B0 B0A0 A0A1 A1B1"/>
    </vehicle>
    <vehicle id="124" type="truck" depart="338.31">
        <route edges="C1C2 C2D2 D2D1 D1D0 D0C0"/>
    </vehicle>
    <vehicle id="125" type="truck" depart="340.76">
        <route edges="B2B1 B1B0 B0A0 A0A1 A1A2 A2B2 B2C2"/>
    </vehicle>
    <vehicle id="126" type="truck" depart="342.82">
        <route edges="D0E0 E0E1 E1E2 E2D2 D2C2 C2C1"/>
    </vehicle>
    <vehicle id="127" type="bus" depart="344.71">
        <route edges="D0E0 E0E1 E1D1"/>
    </vehicle>
    <vehicle id="128" type="car" depart="347.15">
        <route edges="C0B0 B0C0 C0D0 D0E0 E0E1"/>
    </vehicle>
    <vehicle id="129" type="truck" depart="349.36">
        <route edges="E2D2 D2D1 D1D0 D0E0 E0E1 E1E2"/>
    </vehicle>
    <vehicle id="130" type="bus" depart="351.74">
        <route edges="C1D1 D1E1 E1E2 E2D2"/>
    </vehicle>
    <vehicle id="131" type="bus" depart="353.31">
        <route edges="D0C0 C0B0 B0A0 A0A1 A1A2 A2B2 B2C2"/>
    </vehicle>
    <vehicle id="132" type="car" depart="354.92">
        <route edges="C2B2 B2B1 B1A1 A1A2 A2B2 B2A2 A2A1"/>
    </vehicle>
    <vehicle id="133" type="car" depart="357.22">
        <route edges="E2D2 D2D1 D1D0 D0E0 E0E1 E1E2"/>
    </vehicle>
    <vehicle id="134" type="truck" depart="359.35">
        <route edges="E2D2 D2C2 C2B2 B2C2"/>
    </vehicle>
    <vehicle id="135" type="bus" depart="361.38">
        <route edges="C1D1 D1E1 E1E2 E2D2"/>
    </vehicle>
    <vehicle id="136" type="car" depart="363.73">
        <route edges="B1B0 B0A0 A0A1 A1A2 A2B2 B2B1 B1B0"/>
    </vehicle>
    <vehicle id="137" type="truck" depart="364.56">
        <route edges="E0E1 E1E0 E0D0 D0E0 E0E1 E1D1 D1D2"/>
    </vehicle>
    <vehicle id="138" type="car" depart="365.90">
        <route edges="B2B1 B1C1 C1D1 D1E1 E1E2 E2D2 D2C2"/>
    </vehicle>
    <vehicle id="139" type="car" depart="367.31">
        <route edges="E2D2 D2C2 C2C1 C1C0 C0B0"/>
    </vehicle>
    <vehicle id="140" type="bus" depart="368.39">
        <route edges="D2D1 D1D0 D0C0 C0D0"/>
    </vehicle>
    <vehicle id="141" type="car" depart="369.63">
        <route edges="E0E1 E1E0 E0D0 D0E0 E0E1 E1D1 D1D2"/>
    </vehicle>
    <vehicle id="142" type="bus" depart="370.44">
        <route edges="D2E2 E2E1"/>
    </vehicle>
    <vehicle id="143" type="car" depart="371.93">
        <route edges="D1E1 E1D1 D1C1 C1D1 D1E1 E1E0 E0D0"/>
    </vehicle>
    <vehicle id="144" type="car" depart="372.92">
        <route edges="C2B2 B2A2 A2A1 A1A2 A2B2"/>
    </vehicle>
    <vehicle id="145" type="truck" depart="374.34">
        <route edges="C2B2 B2B1 B1A1 A1A2 A2B2 B2A2 A2A1"/>
    </vehicle>
    <vehicle id="146" type="bus" depart="375.63">
        <route edges="B0B1 B1B0 B0B1"/>
    </vehicle>
    <vehicle id="147" type="car" depart="376.65">
        <route edges="A1A2 A2B2 B2C2 C2D2 D2E2 E2E1"/>
    </vehicle>
    <vehicle id="148" type="bus" depart="377.43">
        <route edges="B0B1 B1B0 B0B1"/>
    </vehicle>
    <vehicle id="149" type="truck" depart="378.31">
        <route edges="E0D0 D0C0 C0C1 C1C2 C2D2 D2E2 E2E1"/>
    </vehicle>
    <vehicle id="150" type="bus" depart="379.11">
        <route edges="E1E0 E0D0 D0C0 C0C1"/>
    </vehicle>
    <vehicle id="151" type="truck" depart="380.44">
        <route edges="E1E0 E0D0 D0D1"/>
    </vehicle>
    <vehicle id="152" type="car" depart="381.25">
        <route edges="C1B1 B1C1 C1D1 D1D0 D0E0"/>
    </vehicle>
    <vehicle id="153" type="car" depart="382.70">
        <route edges="A1A0 A0B0 B0B1 B1A1"/>
    </vehicle>
    <vehicle id="154" type="truck" depart="383.38">
        <route edges="E2E1 E1E2 E2D2"/>
    </vehicle>
    <vehicle id="155" type="truck" depart="384.06">
        <route edges="A2B2 B2B1 B1B0 B0A0 A0A1 A1A0"/>
    </vehicle>
    <vehicle id="156" type="bus" depart="385.17">
        <route edges="A1A0 A0B0 B0A0 A0A1 A1B1"/>
    </vehicle>
    <vehicle id="157" type="bus" depart="385.81">
        <route edges="C0D0 D0D1 D1D0 D0D1 D1E1 E1E0"/>
    </vehicle>
    <vehicle id="158" type="bus" depart="387.08">
        <route edges="D2C2 C2D2 D2D1 D1C1 C1D1 D1D0"/>
    </vehicle>
    <vehicle id="159" type="bus" depart="387.94">
        <route edges="A2B2 B2B1 B1B0 B0A0 A0A1 A1A0"/>
    </vehicle>
    <vehicle id="160" type="car" depart="388.85">
        <route edges="A0A1 A1A0 A0B0 B0C0"/>
    </vehicle>
    <vehicle id="161" type="bus" depart="390.32">
        <route edges="B0C0 C0C1 C1D1 D1E1 E1E0 E0D0"/>
    </vehicle>
    <vehicle id="162" type="bus" depart="390.84">
        <route edges="E1E0 E0D0 D0C0 C0C1"/>
    </vehicle>
    <vehicle id="163" type="bus" depart="391.84">
        <route edges="E1E0 E0D0 D0C0 C0C1"/>
    </vehicle>
    <vehicle id="164" type="car" depart="392.38">
        <route edges="B2C2 C2D2 D2C2 C2C1"/>
    </vehicle>
    <vehicle id="165" type="bus" depart="393.15">
        <route edges="A2A1 A1A0 A0B0 B0C0 C0C1 C1C0"/>
    </vehicle>
    <vehicle id="166" type="car" depart="394.39">
        <route edges="E1D1 D1D0"/>
    </vehicle>
    <vehicle id="167" type="truck" depart="395.80">
        <route edges="E0D0 D0C0 C0D0"/>
    </vehicle>
    <vehicle id="168" type="bus" depart="396.31">
        <route edges="D2D1 D1D0"/>
    </vehicle>
    <vehicle id="169" type="truck" depart="397.74">
        <route edges="D1D2 D2E2 E2E1"/>
    </vehicle>
    <vehicle id="170" type="bus" depart="398.30">
        <route edges="A1A0 A0B0 B0B1 B1A1"/>
    </vehicle>
    <vehicle id="171" type="truck" depart="399.11">
        <route edges="E1D1 D1E1 E1E0 E0D0 D0D1 D1C1 C1C0"/>
    </vehicle>
    <vehicle id="172" type="bus" depart="400.25">
        <route edges="E0D0 D0C0 C0D0"/>
    </vehicle>
    <vehicle id="173" type="car" depart="401.46">
        <route edges="C0B0 B0C0 C0D0 D0E0 E0E1"/>
    </vehicle>
    <vehicle id="174" type="bus" depart="402.15">
        <route edges="E2E1 E1E2 E2D2"/>
    </vehicle>
    <vehicle id="175" type="bus" depart="403.37">
        <route edges="E2D2 D2C2 C2C1 C1C0 C0B0"/>
    </vehicle>
    <vehicle id="176" type="bus" depart="404.69">
        <route edges="D2E2 E2E1"/>
    </vehicle>
    <vehicle id="177" type="car" depart="405.94">
        <route edges="B2C2 C2B2"/>
    </vehicle>
    <vehicle id="178" type="bus" depart="406.67">
        <route edges="D0E0 E0E1 E1E2 E2D2"/>
    </vehicle>
    <vehicle id="179" type="bus" depart="407.73">
        <route edges="C0B0 B0C0 C0D0 D0E0 E0E1"/>
    </vehicle>
    <vehicle id="180" type="bus" depart="408.76">
        <route edges="B0C0 C0C1 C1D1 D1E1 E1E0 E0D0"/>
    </vehicle>
    <vehicle id="181" type="car" depart="409.66">
        <route edges="C1D1 D1E1 E1E2 E2D2"/>
    </vehicle>
    <vehicle id="182" type="truck" depart="410.70">
        <route edges="B0C0 C0C1 C1D1 D1E1 E1E0 E0D0"/>
    </vehicle>
    <vehicle id="183" type="truck" depart="411.96">
        <route edges="C2B2 B2A2 A2A1 A1A2 A2B2"/>
    </vehicle>
    <vehicle id="184" type="bus" depart="412.71">
        <route edges="C2C1 C1C2 C2B2"/>
    </vehicle>
    <vehicle id="185" type="truck" depart="413.77">
        <route edges="C0D0 D0D1 D1D0 D0D1 D1E1 E1E0"/>
    </vehicle>
    <vehicle id="186" type="truck" depart="414.74">
        <route edges="B2A2 A2A1 A1B1 B1C1 C1C2 C2D2 D2C2"/>
    </vehicle>
    <vehicle id="187" type="car" depart="415.51">
        <route edges="C0B0 B0C0 C0D0 D0E0 E0E1"/>
    </vehicle>
    <vehicle id="188" type="bus" depart="416.90">
        <route edges="D2E2 E2E1"/>
    </vehicle>
    <vehicle id="189" type="truck" depart="418.17">
        <route edges="D0D1 D1D2"/>
    </vehicle>
    <vehicle id="190" type="car" depart="419.63">
        <route edges="B2A2 A2A1 A1A2 A2B2 B2C2 C2C1"/>
    </vehicle>
    <vehicle id="191" type="car" depart="421.11">
        <route edges="A2B2 B2B1 B1B0 B0A0 A0A1 A1A0"/>
    </vehicle>
    <vehicle id="192" type="bus" depart="422.28">
        <route edges="E1E2 E2D2 D2E2"/>
    </vehicle>
    <vehicle id="193" type="bus" depart="423.43">
        <route edges="B0A0 A0A1 A1A0 A0B0"/>
    </vehicle>
    <vehicle id="194" type="truck" depart="424.02">
        <route edges="C2C1 C1C0 C0B0 B0A0 A0A1 A1A2 A2B2"/>
    </vehicle>
    <vehicle id="195" type="car" depart="424.88">
        <route edges="A0A1 A1A0 A0B0 B0C0"/>
    </vehicle>
    <vehicle id="196" type="bus" depart="425.43">
        <route edges="A2B2 B2A2"/>
    </vehicle>
    <vehicle id="197" type="car" depart="426.15">
        <route edges="C1B1 B1A1"/>
    </vehicle>
    <vehicle id="198" type="bus" depart="426.95">
        <route edges="A1A2 A2B2 B2C2 C2D2"/>
    </vehicle>
    <vehicle id="199" type="car" depart="428.02">
        <route edges="C0B0 B0C0 C0D0 D0E0 E0E1"/>
    </vehicle>
    <vehicle id="200" type="car" depart="428.79">
        <route edges="D2E2 E2E1"/>
    </vehicle>
    <vehicle id="201" type="car" depart="429.81">
        <route edges="B1B0 B0A0 A0A1"/>
    </vehicle>
    <vehicle id="202" type="truck" depart="430.31">
        <route edges="D2D1 D1D0"/>
    </vehicle>
    <vehicle id="203" type="truck" depart="431.06">
        <route edges="B2C2 C2B2"/>
    </vehicle>
    <vehicle id="204" type="truck" depart="432.50">
        <route edges="A1A0 A0B0 B0B1 B1A1"/>
    </vehicle>
    <vehicle id="205" type="truck" depart="433.34">
        <route edges="B2B1 B1C1 C1C2 C2B2 B2A2 A2A1"/>
    </vehicle>
    <vehicle id="206" type="truck" depart="433.89">
        <route edges="C2C1 C1C2 C2B2 B2B1 B1C1 C1B1"/>
    </vehicle>
    <vehicle id="207" type="bus" depart="435.06">
        <route edges="E0E1 E1E2"/>
    </vehicle>
    <vehicle id="208" type="bus" depart="436.01">
        <route edges="B1B2 B2C2 C2D2 D2D1 D1D0"/>
    </vehicle>
    <vehicle id="209" type="bus" depart="437.26">
        <route edges="D0C0 C0B0 B0A0 A0A1 A1A2 A2B2 B2C2"/>
    </vehicle>
    <vehicle id="210" type="truck" depart="437.77">
        <route edges="B0B1 B1B0 B0B1"/>
    </vehicle>
    <vehicle id="211" type="truck" depart="438.72">
        <route edges="B2C2 C2D2"/>
    </vehicle>
    <vehicle id="212" type="truck" depart="440.00">
        <route edges="B0A0 A0A1 A1A2 A2B2 B2C2 C2B2"/>
    </vehicle>
    <vehicle id="213" type="car" depart="441.22">
        <route edges="D0E0 E0E1 E1E2 E2D2"/>
    </vehicle>
    <vehicle id="214" type="car" depart="442.59">
        <route edges="B1C1 C1C0 C0B0 B0C0 C0D0 D0E0"/>
    </vehicle>
    <vehicle id="215" type="truck" depart="444.00">
        <route edges="D1E1 E1D1 D1D2 D2D1 D1D2 D2D1 D1D0"/>
    </vehicle>
    <vehicle id="216" type="car" depart="445.20">
        <route edges="B1C1 C1D1 D1D0 D0E0"/>
    </vehicle>
    <vehicle id="217" type="car" depart="445.75">
        <route edges="D0E0 E0E1 E1D1"/>
    </vehicle>
    <vehicle id="218" type="bus" depart="446.76">
        <route edges="C2D2 D2D1"/>
    </vehicle>
    <vehicle id="219" type="bus" depart="447.99">
        <route edges="A1A0 A0B0 B0A0 A0A1 A1A2 A2B2"/>
    </vehicle>
    <vehicle id="220" type="bus" depart="448.63">
        <route edges="D0C0 C0B0 B0A0 A0A1 A1A2 A2B2 B2C2"/>
    </vehicle>
    <vehicle id="221" type="truck" depart="449.28">
        <route edges="D0D1 D1E1 E1E0 E0D0"/>
    </vehicle>
    <vehicle id="222" type="truck" depart="450.06">
        <route edges="B1B0 B0A0 A0A1 A1B1 B1C1"/>
    </vehicle>
    <vehicle id="223" type="truck" depart="450.91">
        <route edges="A2B2 B2A2 A2A1 A1B1 B1A1"/>
    </vehicle>
    <vehicle id="224" type="bus" depart="451.87">
        <route edges="B1A1 A1A2 A2B2 B2B1 B1B2"/>
    </vehicle>
    <vehicle id="225" type="bus" depart="452.55">
        <route edges="B1B2 B2C2 C2B2 B2A2 A2A1"/>
    </vehicle>
    <vehicle id="226" type="truck" depart="453.58">
        <route edges="D2D1 D1D0 D0E0 E0E1 E1E2"/>
    </vehicle>
    <vehicle id="227" type="car" depart="455.04">
        <route edges="B2A2 A2A1 A1A0"/>
    </vehicle>
    <vehicle id="228" type="car" depart="456.49">
        <route edges="B1B0 B0A0 A0A1 A1A2 A2B2 B2B1 B1B0"/>
    </vehicle>
    <vehicle id="229" type="car" depart="457.45">
        <route edges="E0E1 E1E2 E2D2 D2C2 C2B2 B2A2 A2A1"/>
    </vehicle>
    <vehicle id="230" type="bus" depart="458.49">
        <route edges="B2C2 C2D2 D2C2 C2C1"/>
    </vehicle>
    <vehicle id="231" type="truck" depart="459.63">
        <route edges="B2B1 B1B0 B0A0 A0A1 A1A2 A2B2 B2C2"/>
    </vehicle>
    <vehicle id="232" type="truck" depart="460.22">
        <route edges="A2A1 A1B1 B1B0"/>
    </vehicle>
    <vehicle id="233" type="bus" depart="460.88">
        <route edges="D1D2 D2E2 E2E1"/>
    </vehicle>
    <vehicle id="234" type="car" depart="461.98">
        <route edges="E2E1 E1E0 E0D0 D0C0 C0D0"/>
    </vehicle>
    <vehicle id="235" type="car" depart="462.94">
        <route edges="D1E1 E1D1 D1D2 D2D1 D1D2 D2D1 D1D0"/>
    </vehicle>
    <vehicle id="236" type="car" depart="464.08">
        <route edges="A1A2 A2B2 B2C2 C2D2 D2C2 C2C1 C1C2"/>
    </vehicle>
    <vehicle id="237" type="bus" depart="465.32">
        <route edges="B0A0 A0A1 A1A0 A0B0"/>
    </vehicle>
    <vehicle id="238" type="bus" depart="466.56">
        <route edges="D2E2 E2E1"/>
    </vehicle>
    <vehicle id="239" type="truck" depart="467.42">
        <route edges="E1D1 D1E1 E1E0 E0D0 D0D1 D1C1 C1C0"/>
    </vehicle>
    <vehicle id="240" type="car" depart="468.13">
        <route edges="E1E0 E0D0 D0E0 E0E1"/>
    </vehicle>
    <vehicle id="241" type="truck" depart="469.35">
        <route edges="C2D2 D2D1"/>
    </vehicle>
    <vehicle id="242" type="bus" depart="470.66">
        <route edges="B1A1 A1A2 A2B2 B2B1 B1B2"/>
    </vehicle>
    <vehicle id="243" type="truck" depart="471.33">
        <route edges="C1C2 C2D2 D2D1 D1D0 D0C0"/>
    </vehicle>
    <vehicle id="244" type="car" depart="472.28">
        <route edges="C0B0 B0C0 C0D0 D0E0 E0E1"/>
    </vehicle>
    <vehicle id="245" type="car" depart="473.31">
        <route edges="D1E1 E1D1 D1C1 C1D1 D1E1 E1E0 E0D0"/>
    </vehicle>
    <vehicle id="246" type="bus" depart="474.29">
        <route edges="B0B1 B1B0 B0B1"/>
    </vehicle>
    <vehicle id="247" type="truck" depart="475.15">
        <route edges="B1C1 C1C0 C0D0 D0D1 D1D2 D2E2"/>
    </vehicle>
    <vehicle id="248" type="bus" depart="476.40">
        <route edges="C2D2 D2D1"/>
    </vehicle>
    <vehicle id="249" type="bus" depart="477.24">
        <route edges="C0D0 D0D1 D1D0 D0D1 D1E1 E1E0"/>
    </vehicle>
    <vehicle id="250" type="car" depart="477.82">
        <route edges="B1B2 B2C2 C2D2 D2D1 D1D0"/>
    </vehicle>
    <vehicle id="251" type="car" depart="479.05">
        <route edges="A1A0 A0B0 B0A0 A0A1 A1B1"/>
    </vehicle>
    <vehicle id="252" type="bus" depart="479.87">
        <route edges="B1C1 C1C0 C0B0 B0C0 C0D0 D0E0"/>
    </vehicle>
    <vehicle id="253" type="truck" depart="481.27">
        <route edges="D0E0 E0E1 E1E2 E2D2 D2C2 C2C1"/>
    </vehicle>
    <vehicle id="254" type="car" depart="482.44">
        <route edges="C1C0 C0C1"/>
    </vehicle>
    <vehicle id="255" type="bus" depart="483.09">
        <route edges="D2D1 D1D0 D0C0 C0D0"/>
    </vehicle>
    <vehicle id="256" type="bus" depart="484.17">
        <route edges="A2B2 B2A2 A2A1 A1B1 B1A1"/>
    </vehicle>
    <vehicle id="257" type="car" depart="484.94">
        <route edges="D0E0 E0E1 E1D1"/>
    </vehicle>
    <vehicle id="258" type="truck" depart="485.76">
        <route edges="E0D0 D0C0 C0D0"/>
    </vehicle>
    <vehicle id="259" type="bus" depart="486.89">
        <route edges="E1E2 E2D2 D2D1 D1D0"/>
    </vehicle>
    <vehicle id="260" type="bus" depart="487.61">
        <route edges="D2C2 C2C1 C1C0 C0B0 B0A0"/>
    </vehicle>
    <vehicle id="261" type="bus" depart="488.97">
        <route edges="A2B2 B2A2"/>
    </vehicle>
    <vehicle id="262" type="bus" depart="489.56">
        <route edges="D1D0 D0C0 C0C1 C1B1 B1A1 A1A0"/>
    </vehicle>
    <vehicle id="263" type="bus" depart="490.45">
        <route edges="A1A2 A2B2 B2C2 C2D2 D2C2 C2C1 C1C2"/>