<?xml version="1.0" ?>
<routes>
    <vType id="car" accel="2.6" decel="4.5" sigma="0.5" length="5" maxSpeed="70"/>
    <vType id="bus" accel="1.2" decel="4.0" sigma="0.5" length="12" maxSpeed="50"/>
    <vType id="truck" accel="1.0" decel="4.0" sigma="0.5" length="8" maxSpeed="60"/>
    <vehicle id="0" type="car" depart="0.00">
        <route edges="D0E0 E0E1 E1D1 D1E1 E1E2 E2D2 D2D1"/>
    </vehicle>
    <vehicle id="1" type="truck" depart="3.73">
        <route edges="D1D0 D0C0 C0B0 B0B1 B1B2 B2A2 A2A1"/>
    </vehicle>
    <vehicle id="2" type="car" depart="8.13">
        <route edges="C1C2 C2D2 D2E2"/>
    </vehicle>
    <vehicle id="3" type="bus" depart="12.21">
        <route edges="B0B1 B1A1 A1B1"/>
    </vehicle>
    <vehicle id="4" type="car" depart="16.14">
        <route edges="C1D1 D1E1 E1E0 E0D0 D0D1 D1D2"/>
    </vehicle>
    <vehicle id="5" type="car" depart="20.30">
        <route edges="D0E0 E0E1 E1D1 D1E1 E1E2 E2D2 D2D1"/>
    </vehicle>
    <vehicle id="6" type="car" depart="23.88">
        <route edges="D1D2 D2E2 E2E1 E1E0 E0D0 D0C0 C0B0"/>
    </vehicle>
    <vehicle id="7" type="car" depart="27.87">
        <route edges="B2B1 B1B0 B0B1 B1A1"/>
    </vehicle>
    <vehicle id="8" type="car" depart="31.92">
        <route edges="A1B1 B1B0"/>
    </vehicle>
    <vehicle id="9" type="car" depart="36.32">
        <route edges="B0A0 A0A1 A1B1 B1C1"/>
    </vehicle>
    <vehicle id="10" type="truck" depart="39.85">
        <route edges="E2D2 D2C2 C2C1 C1C0"/>
    </vehicle>
    <vehicle id="11" type="bus" depart="44.31">
        <route edges="B1B0 B0A0 A0A1 A1A0"/>
    </vehicle>
    <vehicle id="12" type="car" depart="48.10">
        <route edges="E2E1 E1E0 E0D0 D0D1 D1E1 E1D1"/>
    </vehicle>
    <vehicle id="13" type="bus" depart="52.04">
        <route edges="C0C1 C1C2 C2B2 B2C2 C2D2"/>
    </vehicle>
    <vehicle id="14" type="bus" depart="56.24">
        <route edges="B0C0 C0D0 D0E0"/>
    </vehicle>
    <vehicle id="15" type="truck" depart="60.46">
        <route edges="B0C0 C0D0 D0E0"/>
    </vehicle>
    <vehicle id="16" type="bus" depart="64.21">
        <route edges="D0C0 C0B0 B0A0"/>
    </vehicle>
    <vehicle id="17" type="car" depart="68.67">
        <route edges="D0E0 E0E1 E1E2 E2D2 D2C2"/>
    </vehicle>
    <vehicle id="18" type="car" depart="72.33">
        <route edges="D1D2 D2C2 C2B2 B2A2 A2A1 A1A0 A0B0"/>
    </vehicle>
    <vehicle id="19" type="truck" depart="76.75">
        <route edges="A1B1 B1C1 C1D1 D1D2 D2E2 E2E1"/>
    </vehicle>
    <vehicle id="20" type="bus" depart="80.70">
        <route edges="B1B2 B2B1 B1A1 A1A0 A0B0"/>
    </vehicle>
    <vehicle id="21" type="truck" depart="84.64">
        <route edges="D0E0 E0E1 E1E2 E2D2 D2C2"/>
    </vehicle>
    <vehicle id="22" type="truck" depart="88.38">
        <route edges="B1B0 B0A0 A0A1 A1A0"/>
    </vehicle>
    <vehicle id="23" type="car" depart="92.46">
        <route edges="D1D0 D0E0 E0E1 E1E2"/>
    </vehicle>
    <vehicle id="24" type="bus" depart="96.53">
        <route edges="A0A1 A1A0 A0B0 B0C0"/>
    </vehicle>
    <vehicle id="25" type="truck" depart="100.70">
        <route edges="B1B0 B0A0 A0A1 A1A0"/>
    </vehicle>
    <vehicle id="26" type="truck" depart="105.04">
        <route edges="C2C1 C1C2 C2C1 C1D1 D1D2 D2D1"/>
    </vehicle>
    <vehicle id="27" type="bus" depart="109.39">
        <route edges="E0E1 E1E2 E2D2 D2C2"/>
    </vehicle>
    <vehicle id="28" type="bus" depart="113.36">
        <route edges="B0A0 A0A1 A1A0 A0B0 B0A0 A0A1"/>
    </vehicle>
    <vehicle id="29" type="truck" depart="117.44">
        <route edges="D2D1 D1D0 D0D1 D1D2 D2D1"/>
    </vehicle>
    <vehicle id="30" type="car" depart="121.35">
        <route edges="C0B0 B0C0 C0C1 C1C2"/>
    </vehicle>
    <vehicle id="31" type="car" depart="125.48">
        <route edges="B1A1 A1B1"/>
    </vehicle>
    <vehicle id="32" type="car" depart="129.36">
        <route edges="B0B1 B1B0"/>
    </vehicle>
    <vehicle id="33" type="car" depart="133.32">
        <route edges="B2B1 B1C1 C1B1"/>
    </vehicle>
    <vehicle id="34" type="truck" depart="137.25">
        <route edges="E1E2 E2D2 D2C2 C2B2 B2A2"/>
    </vehicle>
    <vehicle id="35" type="car" depart="141.56">
        <route edges="A2B2 B2B1 B1C1 C1C0 C0C1 C1D1"/>
    </vehicle>
    <vehicle id="36" type="truck" depart="145.20">
        <route edges="E1D1 D1D0 D0E0 E0E1 E1E0 E0D0 D0E0"/>
    </vehicle>
    <vehicle id="37" type="bus" depart="149.35">
        <route edges="C2C1 C1C2"/>
    </vehicle>
    <vehicle id="38" type="truck" depart="153.55">
        <route edges="C1C0 C0C1 C1D1 D1E1 E1E0 E0D0 D0C0"/>
    </vehicle>
    <vehicle id="39" type="car" depart="157.51">
        <route edges="D0C0 C0B0 B0B1 B1B2 B2A2 A2A1"/>
    </vehicle>
    <vehicle id="40" type="car" depart="161.01">
        <route edges="C2D2 D2D1 D1D0 D0C0 C0B0 B0A0"/>
    </vehicle>
    <vehicle id="41" type="truck" depart="164.95">
        <route edges="D1D0 D0C0 C0B0 B0B1 B1B2 B2A2 A2A1"/>
    </vehicle>
    <vehicle id="42" type="car" depart="168.92">
        <route edges="E0E1 E1E2 E2D2 D2C2"/>
    </vehicle>
    <vehicle id="43" type="car" depart="173.38">
        <route edges="A0A1 A1A0 A0B0 B0C0"/>
    </vehicle>
    <vehicle id="44" type="truck" depart="177.05">
        <route edges="A0A1 A1A0 A0B0 B0C0"/>
    </vehicle>
    <vehicle id="45" type="truck" depart="181.50">
        <route edges="B0B1 B1B0"/>
    </vehicle>
    <vehicle id="46" type="bus" depart="183.08">
        <route edges="E2E1 E1E0 E0D0 D0D1 D1E1 E1D1"/>
    </vehicle>
    <vehicle id="47" type="bus" depart="184.73">
        <route edges="E0E1 E1E2 E2D2 D2E2"/>
    </vehicle>
    <vehicle id="48" type="bus" depart="186.83">
        <route edges="B2A2 A2A1"/>
    </vehicle>
    <vehicle id="49" type="truck" depart="189.20">
        <route edges="B1B2 B2B1 B1A1 A1A0 A0B0"/>
    </vehicle>
    <vehicle id="50" type="bus" depart="191.67">
        <route edges="C2D2 D2D1 D1D0 D0C0 C0B0 B0A0"/>
    </vehicle>
    <vehicle id="51" type="car" depart="193.23">
        <route edges="C2D2 D2D1 D1D0 D0E0 E0E1 E1E0"/>
    </vehicle>
    <vehicle id="52" type="car" depart="195.63">
        <route edges="D1E1 E1E0 E0D0"/>
    </vehicle>
    <vehicle id="53" type="bus" depart="197.85">
        <route edges="D1D0 D0D1 D1D2 D2C2"/>
    </vehicle>
    <vehicle id="54" type="car" depart="199.54">
        <route edges="D1C1 C1D1 D1E1 E1D1 D1E1 E1D1"/>
    </vehicle>
    <vehicle id="55" type="truck" depart="201.17">
        <route edges="D1D2 D2E2 E2E1 E1E0 E0D0 D0C0 C0B0"/>
    </vehicle>
    <vehicle id="56" type="car" depart="202.67">
        <route edges="E1D1 D1D2 D2E2"/>
    </vehicle>
    <vehicle id="57" type="car" depart="204.29">
        <route edges="A0A1 A1A0 A0B0 B0C0"/>
    </vehicle>
    <vehicle id="58" type="car" depart="206.02">
        <route edges="C1D1 D1E1 E1E0 E0D0 D0D1 D1D2"/>
    </vehicle>
    <vehicle id="59" type="car" depart="207.79">
        <route edges="A2B2 B2A2 A2A1 A1A0 A0B0"/>
    </vehicle>
    <vehicle id="60" type="car" depart="209.35">
        <route edges="D2C2 C2B2"/>
    </vehicle>
    <vehicle id="61" type="car" depart="211.13">
        <route edges="C0B0 B0C0 C0C1 C1C2"/>
    </vehicle>
    <vehicle id="62" type="car" depart="212.70">
        <route edges="C1C0 C0B0 B0C0"/>
    </vehicle>
    <vehicle id="63" type="car" depart="214.88">
        <route edges="D0C0 C0D0 D0C0 C0B0"/>
    </vehicle>
    <vehicle id="64" type="car" depart="216.92">
        <route edges="B1B2 B2C2 C2C1"/>
    </vehicle>
    <vehicle id="65" type="bus" depart="218.97">
        <route edges="C0B0 B0B1 B1C1"/>
    </vehicle>
    <vehicle id="66" type="car" depart="221.17">
        <route edges="C1C2 C2D2 D2E2"/>
    </vehicle>
    <vehicle id="67" type="bus" depart="223.29">
        <route edges="B1A1 A1A2"/>
    </vehicle>
    <vehicle id="68" type="car" depart="225.63">
        <route edges="C1C2 C2B2 B2B1"/>
    </vehicle>
    <vehicle id="69" type="truck" depart="227.96">
        <route edges="E2E1 E1E0 E0D0 D0D1 D1E1 E1D1"/>
    </vehicle>
    <vehicle id="70" type="truck" depart="230.24">
        <route edges="E1D1 D1D0 D0E0 E0E1 E1E0 E0D0 D0E0"/>
    </vehicle>
    <vehicle id="71" type="truck" depart="232.08">
        <route edges="E0E1 E1E2 E2D2 D2E2"/>
    </vehicle>
    <vehicle id="72" type="truck" depart="234.25">
        <route edges="B1C1 C1D1 D1E1 E1E0"/>
    </vehicle>
    <vehicle id="73" type="car" depart="236.30">
        <route edges="C1C2 C2D2 D2C2 C2D2 D2D1 D1D0 D0C0"/>
    </vehicle>
    <vehicle id="74" type="bus" depart="237.91">
        <route edges="A0B0 B0A0 A0A1 A1B1 B1C1 C1C0 C0C1"/>
    </vehicle>
    <vehicle id="75" type="truck" depart="240.28">
        <route edges="A2B2 B2A2 A2A1 A1A0 A0B0"/>
    </vehicle>
    <vehicle id="76" type="truck" depart="242.45">
        <route edges="D2E2 E2E1 E1E0 E0D0 D0D1"/>
    </vehicle>
    <vehicle id="77" type="car" depart="244.07">
        <route edges="B1C1 C1D1 D1E1 E1E0"/>
    </vehicle>
    <vehicle id="78" type="car" depart="246.09">
        <route edges="B1B2 B2C2 C2C1"/>
    </vehicle>
    <vehicle id="79" type="car" depart="248.11">
        <route edges="E2D2 D2C2 C2C1 C1C0"/>
    </vehicle>
    <vehicle id="80" type="car" depart="249.78">
        <route edges="B2A2 A2A1 A1A0 A0B0 B0A0 A0A1 A1A0"/>
    </vehicle>
    <vehicle id="81" type="bus" depart="251.83">
        <route edges="B0B1 B1A1 A1B1"/>
    </vehicle>
    <vehicle id="82" type="truck" depart="253.74">
        <route edges="C2D2 D2D1 D1D0 D0E0 E0E1 E1E0"/>
    </vehicle>
    <vehicle id="83" type="truck" depart="256.24">
        <route edges="C1C0 C0C1 C1C2 C2B2 B2A2 A2A1"/>
    </vehicle>
    <vehicle id="84" type="car" depart="257.81">
        <route edges="E2D2 D2D1 D1E1"/>
    </vehicle>
    <vehicle id="85" type="car" depart="259.40">
        <route edges="C2B2 B2B1"/>
    </vehicle>
    <vehicle id="86" type="truck" depart="261.89">
        <route edges="B1B2 B2B1 B1A1 A1A0 A0B0"/>
    </vehicle>
    <vehicle id="87" type="car" depart="264.13">
        <route edges="D1E1 E1E0 E0D0 D0E0 E0E1 E1E2"/>
    </vehicle>
    <vehicle id="88" type="car" depart="265.89">
        <route edges="A2B2 B2A2 A2A1 A1A0 A0B0"/>
    </vehicle>
    <vehicle id="89" type="truck" depart="267.66">
        <route edges="E0D0 D0D1 D1C1 C1D1 D1D2 D2E2"/>
    </vehicle>
    <vehicle id="90" type="bus" depart="269.48">
        <route edges="D1C1 C1D1 D1E1 E1D1 D1E1 E1D1"/>
    </vehicle>
    <vehicle id="91" type="car" depart="271.17">
        <route edges="D0E0 E0E1 E1D1 D1E1 E1E2 E2D2 D2D1"/>
    </vehicle>
    <vehicle id="92" type="bus" depart="273.43">
        <route edges="C1D1 D1E1"/>
    </vehicle>
    <vehicle id="93" type="truck" depart="275.01">
        <route edges="E0E1 E1E2 E2D2 D2C2"/>
    </vehicle>
    <vehicle id="94" type="bus" depart="277.17">
        <route edges="B2B1 B1B0 B0B1 B1A1"/>
    </vehicle>
    <vehicle id="95" type="truck" depart="279.07">
        <route edges="E0E1 E1E0 E0D0 D0D1 D1C1"/>
    </vehicle>
    <vehicle id="96" type="bus" depart="281.49">
        <route edges="B1B0 B0A0 A0A1 A1A0"/>
    </vehicle>
    <vehicle id="97" type="truck" depart="283.26">
        <route edges="A1A2 A2B2 B2C2 C2D2"/>
    </vehicle>
    <vehicle id="98" type="bus" depart="285.52">
        <route edges="D0D1 D1E1 E1E2 E2D2 D2C2 C2B2"/>
    </vehicle>
    <vehicle id="99" type="truck" depart="287.03">
        <route edges="C1C2 C2D2 D2C2 C2D2 D2D1 D1D0 D0C0"/>
    </vehicle>
    <vehicle id="100" type="truck" depart="288.93">
        <route edges="A0A1 A1A0 A0B0 B0C0"/>
    </vehicle>
    <vehicle id="101" type="car" depart="290.78">
        <route edges="D1D0 D0D1 D1D2 D2C2"/>
    </vehicle>
    <vehicle id="102" type="bus" depart="292.64">
        <route edges="E1E0 E0D0 D0C0 C0B0 B0A0 A0A1"/>
    </vehicle>
    <vehicle id="103" type="truck" depart="295.03">
        <route edges="B0B1 B1B0"/>
    </vehicle>
    <vehicle id="104" type="bus" depart="296.57">
        <route edges="B2A2 A2A1 A1A0 A0B0 B0A0 A0A1 A1A0"/>
    </vehicle>
    <vehicle id="105" type="truck" depart="298.76">
        <route edges="D1C1 C1B1 B1B2 B2B1 B1B2 B2A2 A2A1"/>
    </vehicle>
    <vehicle id="106" type="truck" depart="300.39">
        <route edges="C1C2 C2D2 D2C2 C2D2 D2D1 D1D0 D0C0"/>
    </vehicle>
    <vehicle id="107" type="bus" depart="302.76">
        <route edges="C1C2 C2D2 D2E2"/>
    </vehicle>
    <vehicle id="108" type="truck" depart="304.43">
        <route edges="C2C1 C1C2"/>
    </vehicle>
    <vehicle id="109" type="bus" depart="306.83">
        <route edges="B2B1 B1B0 B0B1 B1A1"/>
    </vehicle>
    <vehicle id="110" type="car" depart="308.93">
        <route edges="B0C0 C0D0 D0E0"/>
    </vehicle>
    <vehicle id="111" type="truck" depart="311.41">
        <route edges="E0D0 D0D1 D1C1 C1C0 C0D0"/>
    </vehicle>
    <vehicle id="112" type="bus" depart="313.10">
        <route edges="B1B2 B2C2 C2C1"/>
    </vehicle>
    <vehicle id="113" type="truck" depart="315.04">
        <route edges="B1A1 A1B1"/>
    </vehicle>
    <vehicle id="114" type="car" depart="316.79">
        <route edges="C0B0 B0B1 B1C1"/>
    </vehicle>
    <vehicle id="115" type="car" depart="318.45">
        <route edges="D1E1 E1E2 E2D2 D2D1"/>
    </vehicle>
    <vehicle id="116" type="truck" depart="320.29">
        <route edges="A1A2 A2B2 B2C2 C2B2 B2C2"/>
    </vehicle>
    <vehicle id="117" type="truck" depart="321.90">
        <route edges="A1A2 A2B2 B2C2 C2D2"/>
    </vehicle>
    <vehicle id="118" type="truck" depart="323.82">
        <route edges="A0A1 A1A0 A0B0 B0C0"/>
    </vehicle>
    <vehicle id="119" type="bus" depart="325.62">
        <route edges="E0E1 E1E0 E0D0 D0D1 D1C1"/>
    </vehicle>
    <vehicle id="120" type="car" depart="327.57">
        <route edges="A1A0 A0B0 B0B1 B1B0 B0B1 B1A1"/>
    </vehicle>
    <vehicle id="121" type="bus" depart="329.44">
        <route edges="B1B0 B0A0 A0A1 A1A0"/>
    </vehicle>
    <vehicle id="122" type="bus" depart="331.43">
        <route edges="B2B1 B1B0 B0B1 B1A1"/>
    </vehicle>
    <vehicle id="123" type="bus" depart="333.15">
        <route edges="C1C2 C2D2 D2E2"/>
    </vehicle>
    <vehicle id="124" type="bus" depart="334.74">
        <route edges="B2C2 C2D2 D2D1 D1E1 E1E2"/>
    </vehicle>
    <vehicle id="125" type="car" depart="336.89">
        <route edges="D1E1 E1E0 E0D0 D0E0 E0E1 E1E2"/>
    </vehicle>
    <vehicle id="126" type="truck" depart="338.74">
        <route edges="B1A1 A1B1"/>
    </vehicle>
    <vehicle id="127" type="bus" depart="341.19">
        <route edges="C1D1 D1E1"/>
    </vehicle>
    <vehicle id="128" type="bus" depart="343.27">
        <route edges="C1C2 C2B2 B2B1"/>
    </vehicle>
    <vehicle id="129" type="bus" depart="345.33">
        <route edges="D1E1 E1E0 E0D0"/>
    </vehicle>
    <vehicle id="130" type="bus" depart="347.49">
        <route edges="C1C0 C0C1 C1C2 C2B2 B2A2 A2A1"/>
    </vehicle>
    <vehicle id="131" type="bus" depart="349.97">
        <route edges="B0A0 A0A1 A1B1 B1C1"/>
    </vehicle>
    <vehicle id="132" type="car" depart="352.08">
        <route edges="D2D1 D1D2 D2D1 D1E1 E1E0 E0D0 D0E0"/>
    </vehicle>
    <vehicle id="133" type="bus" depart="353.71">
        <route edges="D0D1 D1E1 E1E2 E2D2 D2C2 C2B2"/>
    </vehicle>
    <vehicle id="134" type="bus" depart="355.76">
        <route edges="D1C1 C1D1 D1E1 E1D1 D1E1 E1D1"/>
    </vehicle>
    <vehicle id="135" type="truck" depart="357.47">
        <route edges="C1C2 C2D2 D2C2 C2D2 D2D1 D1D0 D0C0"/>
    </vehicle>
    <vehicle id="136" type="truck" depart="359.65">
        <route edges="C2C1 C1C2"/>
    </vehicle>
    <vehicle id="137" type="truck" depart="361.49">
        <route edges="D0E0 E0E1 E1D1 D1E1 E1E2 E2D2 D2D1"/>
    </vehicle>
    <vehicle id="138" type="bus" depart="363.08">
        <route edges="B1B2 B2B1 B1A1 A1A0 A0B0"/>
    </vehicle>
    <vehicle id="139" type="truck" depart="364.03">
        <route edges="D1E1 E1E0 E0D0 D0E0 E0E1 E1E2"/>
    </vehicle>
    <vehicle id="140" type="car" depart="364.84">
        <route edges="E0D0 D0D1 D1C1 C1D1 D1D2 D2E2"/>
    </vehicle>
    <vehicle id="141" type="bus" depart="366.22">
        <route edges="E2D2 D2D1 D1E1"/>
    </vehicle>
    <vehicle id="142" type="bus" depart="367.14">
        <route edges="C1C0 C0B0 B0C0"/>
    </vehicle>
    <vehicle id="143" type="car" depart="368.17">
        <route edges="B2C2 C2D2 D2D1 D1E1 E1E2"/>
    </vehicle>
    <vehicle id="144" type="bus" depart="368.76">
        <route edges="C2D2 D2D1 D1D0 D0E0 E0E1 E1E0"/>
    </vehicle>
    <vehicle id="145" type="car" depart="369.77">
        <route edges="E2D2 D2C2 C2C1 C1C0"/>
    </vehicle>
    <vehicle id="146" type="car" depart="370.81">
        <route edges="D2D1 D1D0 D0D1 D1D2 D2D1"/>
    </vehicle>
    <vehicle id="147" type="truck" depart="371.91">
        <route edges="E0D0 D0D1 D1C1 C1C0 C0D0"/>
    </vehicle>
    <vehicle id="148" type="car" depart="372.45">
        <route edges="E0E1 E1E2 E2D2 D2E2"/>
    </vehicle>
    <vehicle id="149" type="bus" depart="373.21">
        <route edges="A1A2 A2B2 B2B1 B1A1 A1A2"/>
    </vehicle>
    <vehicle id="150" type="truck" depart="374.24">
        <route edges="C0C1 C1C2 C2C1 C1C0"/>
    </vehicle>
    <vehicle id="151" type="truck" depart="375.36">
        <route edges="E0E1 E1E0 E0D0 D0D1 D1C1"/>
    </vehicle>
    <vehicle id="152" type="bus" depart="376.59">
        <route edges="B2A2 A2A1 A1A0 A0B0 B0A0 A0A1 A1A0"/>
    </vehicle>
    <vehicle id="153" type="bus" depart="377.76">
        <route edges="A1B1 B1B0"/>
    </vehicle>
    <vehicle id="154" type="bus" depart="378.75">
        <route edges="E0E1 E1E2 E2D2 D2C2"/>
    </vehicle>
    <vehicle id="155" type="car" depart="379.99">
        <route edges="C1C0 C0C1 C1C2 C2B2 B2A2 A2A1"/>
    </vehicle>
    <vehicle id="156" type="car" depart="381.10">
        <route edges="E1E2 E2D2 D2C2 C2B2 B2A2"/>
    </vehicle>
    <vehicle id="157" type="car" depart="382.47">
        <route edges="D1E1 E1E2 E2D2 D2D1"/>
    </vehicle>
    <vehicle id="158" type="car" depart="383.48">
        <route edges="C2D2 D2D1 D1D0 D0E0 E0E1 E1E0"/>
    </vehicle>
    <vehicle id="159" type="bus" depart="384.79">
        <route edges="D1D0 D0D1 D1D2 D2C2"/>
    </vehicle>
    <vehicle id="160" type="bus" depart="385.86">
        <route edges="A2B2 B2A2 A2A1 A1A0 A0B0"/>
    </vehicle>
    <vehicle id="161" type="truck" depart="386.85">
        <route edges="E0D0 D0D1 D1C1 C1C0 C0D0"/>
    </vehicle>
    <vehicle id="162" type="truck" depart="388.01">
        <route edges="C1D1 D1C1 C1B1 B1B2"/>
    </vehicle>
    <vehicle id="163" type="truck" depart="388.58">
        <route edges="B2C2 C2D2 D2D1 D1E1 E1E2"/>
    </vehicle>
    <vehicle id="164" type="truck" depart="389.38">
        <route edges="E1D1 D1C1 C1C2 C2B2"/>
    </vehicle>
    <vehicle id="165" type="car" depart="390.27">
        <route edges="D0D1 D1E1 E1E2 E2D2 D2C2 C2B2"/>
    </vehicle>
    <vehicle id="166" type="car" depart="390.95">
        <route edges="B1B2 B2B1 B1A1 A1A0 A0B0"/>
    </vehicle>
    <vehicle id="167" type="bus" depart="391.74">
        <route edges="C1C2 C2D2 D2E2"/>
    </vehicle>
    <vehicle id="168" type="car" depart="392.56">
        <route edges="B2B1 B1A1"/>
    </vehicle>
    <vehicle id="169" type="bus" depart="393.82">
        <route edges="A1B1 B1B0"/>
    </vehicle>
    <vehicle id="170" type="car" depart="395.22">
        <route edges="A2B2 B2A2 A2A1 A1A0 A0B0"/>
    </vehicle>
    <vehicle id="171" type="truck" depart="396.17">
        <route edges="C2B2 B2B1"/>
    </vehicle>
    <vehicle id="172" type="bus" depart="397.33">
        <route edges="A1B1 B1B0 B0A0 A0A1 A1A0 A0B0 B0A0"/>
    </vehicle>
    <vehicle id="173" type="bus" depart="398.53">
        <route edges="C2C1 C1C2 C2C1 C1D1 D1D2 D2D1"/>
    </vehicle>
    <vehicle id="174" type="bus" depart="399.95">
        <route edges="B1B2 B2C2 C2D2 D2C2"/>
    </vehicle>
    <vehicle id="175" type="car" depart="400.61">
        <route edges="D0C0 C0D0 D0C0 C0B0"/>
    </vehicle>
    <vehicle id="176" type="car" depart="401.65">
        <route edges="C0C1 C1C2 C2B2 B2C2 C2D2"/>
    </vehicle>
    <vehicle id="177" type="truck" depart="402.23">
        <route edges="B1B2 B2C2 C2C1"/>
    </vehicle>
    <vehicle id="178" type="bus" depart="403.52">
        <route edges="C1C0 C0C1 C1D1 D1E1 E1E0 E0D0 D0C0"/>
    </vehicle>
    <vehicle id="179" type="truck" depart="404.86">
        <route edges="E1D1 D1C1 C1C2 C2B2"/>
    </vehicle>
    <vehicle id="180" type="bus" depart="405.66">
        <route edges="D2D1 D1D2 D2D1 D1E1 E1E0 E0D0 D0E0"/>
    </vehicle>
    <vehicle id="181" type="car" depart="406.90">
        <route edges="C0B0 B0C0 C0C1 C1C2"/>
    </vehicle>
    <vehicle id="182" type="bus" depart="407.84">
        <route edges="B2B1 B1C1 C1B1"/>
    </vehicle>
    <vehicle id="183" type="truck" depart="408.37">
        <route edges="B1C1 C1D1 D1E1 E1E0"/>
    </vehicle>
    <vehicle id="184" type="bus" depart="409.23">
        <route edges="B0A0 A0A1 A1B1 B1A1 A1A2 A2B2 B2A2"/>
    </vehicle>
    <vehicle id="185" type="bus" depart="410.08">
        <route edges="E2E1 E1E2 E2D2 D2C2 C2D2"/>
    </vehicle>
    <vehicle id="186" type="bus" depart="411.18">
        <route edges="C1D1 D1E1 E1E0 E0D0 D0D1 D1D2"/>
    </vehicle>
    <vehicle id="187" type="truck" depart="412.63">
        <route edges="A1B1 B1B0 B0A0 A0A1 A1A0 A0B0 B0A0"/>
    </vehicle>
    <vehicle id="188" type="truck" depart="413.50">
        <route edges="D0E0 E0E1"/>
    </vehicle>
    <vehicle id="189" type="car" depart="414.72">
        <route edges="A1A2 A2B2 B2B1 B1A1 A1A2"/>
    </vehicle>
    <vehicle id="190" type="bus" depart="416.15">
        <route edges="B2A2 A2A1 A1A0 A0B0 B0A0 A0A1 A1A0"/>
    </vehicle>
    <vehicle id="191" type="bus" depart="417.48">
        <route edges="A0B0 B0A0 A0A1 A1B1 B1C1 C1C0 C0C1"/>
    </vehicle>
    <vehicle id="192" type="bus" depart="418.14">
        <route edges="E2D2 D2C2 C2C1 C1C0"/>
    </vehicle>
    <vehicle id="193" type="bus" depart="419.45">
        <route edges="B1B2 B2B1 B1A1 A1A0 A0B0"/>
    </vehicle>
    <vehicle id="194" type="truck" depart="420.10">
        <route edges="C1B1 B1A1 A1A2 A2B2 B2C2"/>
    </vehicle>
    <vehicle id="195" type="truck" depart="420.90">
        <route edges="A2A1 A1B1"/>
    </vehicle>
    <vehicle id="196" type="car" depart="421.60">
        <route edges="E1D1 D1D0 D0E0 E0E1 E1E0 E0D0 D0E0"/>
    </vehicle>
    <vehicle id="197" type="truck" depart="422.72">
        <route edges="B1A1 A1A2"/>
    </vehicle>
    <vehicle id="198" type="car" depart="423.32">
        <route edges="E0D0 D0C0 C0B0 B0A0 A0A1 A1A0"/>
    </vehicle>
    <vehicle id="199" type="truck" depart="423.88">
        <route edges="D2D1 D1D0 D0D1 D1D2 D2D1"/>
    </vehicle>
    <vehicle id="200" type="bus" depart="425.16">
        <route edges="C0C1 C1D1 D1D2"/>
    </vehicle>
    <vehicle id="201" type="car" depart="426.30">
        <route edges="C2B2 B2B1"/>
    </vehicle>
    <vehicle id="202" type="bus" depart="427.44">
        <route edges="C2D2 D2D1 D1D0 D0E0 E0E1 E1E0"/>
    </vehicle>
    <vehicle id="203" type="bus" depart="428.86">
        <route edges="B1B2 B2C2 C2D2 D2C2"/>
    </vehicle>
    <vehicle id="204" type="car" depart="429.90">
        <route edges="C1C0 C0C1 C1D1 D1E1 E1E0 E0D0 D0C0"/>
    </vehicle>
    <vehicle id="205" type="car" depart="431.11">
        <route edges="B2B1 B1C1 C1B1"/>
    </vehicle>
    <vehicle id="206" type="truck" depart="432.03">
        <route edges="D1D2 D2E2 E2E1 E1E0 E0D0 D0C0 C0B0"/>
    </vehicle>
    <vehicle id="207" type="bus" depart="432.82">
        <route edges="B1B2 B2C2 C2C1"/>
    </vehicle>
    <vehicle id="208" type="car" depart="433.38">
        <route edges="B0A0 A0A1 A1A0 A0B0 B0A0 A0A1"/>
    </vehicle>
    <vehicle id="209" type="truck" depart="434.61">
        <route edges="E1D1 D1C1 C1C2 C2B2"/>
    </vehicle>
    <vehicle id="210" type="truck" depart="435.60">
        <route edges="E1E0 E0D0 D0E0 E0E1 E1E0"/>
    </vehicle>
    <vehicle id="211" type="car" depart="436.45">
        <route edges="D0C0 C0B0 B0A0"/>
    </vehicle>
    <vehicle id="212" type="car" depart="437.04">
        <route edges="B1C1 C1D1 D1E1 E1E0"/>
    </vehicle>
    <vehicle id="213" type="car" depart="437.95">
        <route edges="A2B2 B2A2 A2A1 A1A0 A0B0"/>
    </vehicle>
    <vehicle id="214" type="truck" depart="438.61">
        <route edges="A0B0 B0A0 A0A1 A1B1 B1C1 C1C0 C0C1"/>
    </vehicle>
    <vehicle id="215" type="car" depart="439.26">
        <route edges="D1C1 C1B1 B1B2 B2B1 B1B2 B2A2 A2A1"/>
    </vehicle>
    <vehicle id="216" type="truck" depart="439.82">
        <route edges="C1C0 C0C1 C1D1 D1E1 E1E0 E0D0 D0C0"/>
    </vehicle>
    <vehicle id="217" type="bus" depart="440.79">
        <route edges="A2B2 B2A2 A2A1 A1A0 A0B0"/>
    </vehicle>
    <vehicle id="218" type="car" depart="441.81">
        <route edges="E1E2 E2D2 D2C2 C2B2 B2A2"/>
    </vehicle>
    <vehicle id="219" type="truck" depart="443.30">
        <route edges="C1C2 C2B2 B2B1"/>
    </vehicle>
    <vehicle id="220" type="truck" depart="444.11">
        <route edges="D2D1 D1D2 D2D1 D1E1 E1E0 E0D0 D0E0"/>
    </vehicle>
    <vehicle id="221" type="bus" depart="444.73">
        <route edges="B2C2 C2D2 D2D1 D1E1 E1E2"/>
    </vehicle>
    <vehicle id="222" type="car" depart="445.37">
        <route edges="E1E0 E0D0 D0C0 C0B0 B0A0 A0A1"/>
    </vehicle>
    <vehicle id="223" type="truck" depart="446.38">
        <route edges="B0A0 A0A1 A1B1 B1A1 A1A2 A2B2 B2A2"/>
    </vehicle>
    <vehicle id="224" type="truck" depart="447.33">
        <route edges="D0E0 E0E1"/>
    </vehicle>
    <vehicle id="225" type="car" depart="448.19">
        <route edges="E0D0 D0C0 C0B0 B0A0 A0A1 A1A0"/>
    </vehicle>
    <vehicle id="226" type="truck" depart="448.88">
        <route edges="B0A0 A0A1 A1B1 B1C1"/>
    </vehicle>
    <vehicle id="227" type="truck" depart="450.27">
        <route edges="D1C1 C1D1 D1E1 E1D1 D1E1 E1D1"/>
    </vehicle>
    <vehicle id="228" type="bus" depart="450.88">
        <route edges="E2E1 E1E2 E2D2 D2C2 C2D2"/>
    </vehicle>
    <vehicle id="229" type="car" depart="451.66">
        <route edges="A1B1 B1C1 C1D1 D1D2 D2E2 E2E1"/>
    </vehicle>
    <vehicle id="230" type="bus" depart="452.51">
        <route edges="C2C1 C1C2"/>
    </vehicle>
    <vehicle id="231" type="car" depart="453.53">
        <route edges="D2E2 E2E1 E1D1 D1E1 E1E0 E0D0"/>
    </vehicle>
    <vehicle id="232" type="bus" depart="454.07">
        <route edges="C2B2 B2A2 A2A1 A1A0 A0B0"/>
    </vehicle>
    <vehicle id="233" type="bus" depart="455.42">
        <route edges="E1E0 E0D0 D0E0 E0E1 E1E0"/>
    </vehicle>
    <vehicle id="234" type="truck" depart="456.50">
        <route edges="E2D2 D2C2 C2C1 C1C0"/>
    </vehicle>
    <vehicle id="235" type="car" depart="457.63">
        <route edges="D2D1 D1D0 D0D1 D1D2 D2D1"/>
    </vehicle>
    <vehicle id="236" type="truck" depart="458.66">
        <route edges="D1D2 D2E2 E2E1 E1E0 E0D0 D0C0 C0B0"/>
    </vehicle>
    <vehicle id="237" type="truck" depart="459.32">
        <route edges="E0E1 E1E2 E2D2 D2E2"/>
    </vehicle>
    <vehicle id="238" type="car" depart="460.28">
        <route edges="B0A0 A0A1 A1B1 B1C1"/>
    </vehicle>
    <vehicle id="239" type="truck" depart="460.91">
        <route edges="C1D1 D1C1 C1B1 B1B2"/>
    </vehicle>
    <vehicle id="240" type="car" depart="461.85">
        <route edges="E2D2 D2D1 D1E1"/>
    </vehicle>
    <vehicle id="241" type="truck" depart="462.97">
        <route edges="E0D0 D0D1 D1C1 C1D1 D1D2 D2E2"/>
    </vehicle>
    <vehicle id="242" type="car" depart="464.35">
        <route edges="C2C1 C1C2 C2C1 C1D1 D1D2 D2D1"/>
    </vehicle>
    <vehicle id="243" type="car" depart="465.19">
        <route edges="B0C0 C0D0 D0E0"/>
    </vehicle>
    <vehicle id="244" type="car" depart="466.45">
        <route edges="D1D0 D0D1 D1D2 D2C2"/>
    </vehicle>
    <vehicle id="245" type="car" depart="466.99">
        <route edges="D0D1 D1D2"/>
    </vehicle>
    <vehicle id="246" type="truck" depart="467.54">
        <route edges="C1C2 C2D2 D2E2"/>
    </vehicle>
    <vehicle id="247" type="car" depart="468.91">
        <route edges="C2C1 C1C2"/>
    </vehicle>
    <vehicle id="248" type="bus" depart="470.13">
        <route edges="D2D1 D1D0 D0D1 D1D2 D2D1"/>
    </vehicle>
    <vehicle id="249" type="car" depart="470.73">
        <route edges="B2B1 B1C1 C1B1"/>
    </vehicle>
    <vehicle id="250" type="bus" depart="471.33">
        <route edges="A0B0 B0A0 A0A1 A1B1 B1C1 C1C0 C0C1"/>
    </vehicle>
    <vehicle id="251" type="car" depart="471.98">
        <route edges="D2E2 E2E1 E1D1 D1E1 E1E0 E0D0"/>
    </vehicle>
    <vehicle id="252" type="car" depart="472.79">
        <route edges="C1D1 D1E1"/>
    </vehicle>
    <vehicle id="253" type="car" depart="473.47">
        <route edges="E2E1 E1E2 E2D2 D2C2 C2D2"/>
    </vehicle>
    <vehicle id="254" type="truck" depart="474.89">
        <route edges="C2B2 B2B1"/>
    </vehicle>
    <vehicle id="255" type="bus" depart="475.54">
        <route edges="C2B2 B2B1"/>
    </vehicle>
    <vehicle id="256" type="car" depart="476.63">
        <route edges="D2D1 D1D0 D0D1 D1D2 D2D1"/>
    </vehicle>
    <vehicle id="257" type="truck" depart="477.32">
        <route edges="E0D0 D0D1 D1C1 C1C0 C0D0"/>
    </vehicle>
    <vehicle id="258" type="bus" depart="478.20">
        <route edges="B0A0 A0A1 A1B1 B1A1 A1A2 A2B2 B2A2"/>
    </vehicle>
    <vehicle id="259" type="truck" depart="479.29">
        <route edges="B1A1 A1B1"/>
    </vehicle>
    <vehicle id="260" type="car" depart="480.48">
        <route edges="D1D0 D0C0 C0B0 B0B1 B1B2 B2A2 A2A1"/>
    </vehicle>
    <vehicle id="261" type="car" depart="481.23">
        <route edges="B0A0 A0A1 A1B1 B1C1"/>
    </vehicle>
    <vehicle id="262" type="truck" depart="482.42">