<?xml version="1.0" ?>
<routes>
    <vType id="car" accel="2.6" decel="4.5" sigma="0.5" length="5" maxSpeed="70"/>
    <vType id="bus" accel="1.2" decel="4.0" sigma="0.5" length="12" maxSpeed="50"/>
    <vType id="truck" accel="1.0" decel="4.0" sigma="0.5" length="8" maxSpeed="60"/>
    <vehicle id="0" type="car" depart="0.00">
        <route edges="C1B1 B1C1 C1D1"/>
    </vehicle>
    <vehicle id="1" type="car" depart="4.21">
        <route edges="C0D0 D0C0 C0D0 D0C0"/>
    </vehicle>
    <vehicle id="2" type="truck" depart="8.02">
        <route edges="D1D2 D2E2 E2E1 E1E0 E0D0"/>
    </vehicle>
    <vehicle id="3" type="truck" depart="11.80">
        <route edges="C0D0 D0C0 C0D0 D0C0"/>
    </vehicle>
    <vehicle id="4" type="bus" depart="15.93">
        <route edges="D0D1 D1D0 D0C0 C0C1 C1D1"/>
    </vehicle>
    <vehicle id="5" type="bus" depart="20.06">
        <route edges="E1E0 E0D0 D0D1 D1C1 C1B1 B1C1"/>
    </vehicle>
    <vehicle id="6" type="bus" depart="24.43">
        <route edges="E0D0 D0C0"/>
    </vehicle>
    <vehicle id="7" type="car" depart="28.62">
        <route edges="D1C1 C1B1 B1A1 A1A2"/>
    </vehicle>
    <vehicle id="8" type="truck" depart="32.77">
        <route edges="C1D1 D1D2 D2E2"/>
    </vehicle>
    <vehicle id="9" type="car" depart="36.97">
        <route edges="A2A1 A1B1 B1B0 B0A0 A0A1 A1A0 A0B0"/>
    </vehicle>
    <vehicle id="10" type="car" depart="41.06">
        <route edges="E2D2 D2D1 D1E1 E1E0 E0D0 D0C0 C0C1"/>
    </vehicle>
    <vehicle id="11" type="car" depart="44.72">
        <route edges="C1C0 C0B0 B0B1 B1A1 A1B1"/>
    </vehicle>
    <vehicle id="12" type="car" depart="48.39">
        <route edges="C0B0 B0A0 A0A1 A1B1"/>
    </vehicle>
    <vehicle id="13" type="truck" depart="52.07">
        <route edges="C1C2 C2C1"/>
    </vehicle>
    <vehicle id="14" type="car" depart="56.45">
        <route edges="B1B0 B0A0"/>
    </vehicle>
    <vehicle id="15" type="truck" depart="60.27">
        <route edges="A1A0 A0B0 B0C0 C0D0 D0E0 E0E1"/>
    </vehicle>
    <vehicle id="16" type="bus" depart="64.63">
        <route edges="B2C2 C2D2 D2C2"/>
    </vehicle>
    <vehicle id="17" type="bus" depart="68.61">
        <route edges="E1D1 D1C1"/>
    </vehicle>
    <vehicle id="18" type="bus" depart="72.87">
        <route edges="C2B2 B2C2 C2D2 D2D1 D1C1 C1B1 B1A1"/>
    </vehicle>
    <vehicle id="19" type="bus" depart="76.45">
        <route edges="D1C1 C1B1 B1B2 B2C2 C2D2"/>
    </vehicle>
    <vehicle id="20" type="truck" depart="80.37">
        <route edges="B1B0 B0A0"/>
    </vehicle>
    <vehicle id="21" type="truck" depart="83.88">
        <route edges="A0A1 A1B1 B1C1 C1D1 D1D2"/>
    </vehicle>
    <vehicle id="22" type="truck" depart="87.94">
        <route edges="E2D2 D2C2 C2D2"/>
    </vehicle>
    <vehicle id="23" type="car" depart="91.79">
        <route edges="B1B0 B0A0"/>
    </vehicle>
    <vehicle id="24" type="truck" depart="95.58">
        <route edges="D1C1 C1B1 B1B2 B2C2 C2D2"/>
    </vehicle>
    <vehicle id="25" type="car" depart="99.42">
        <route edges="D0E0 E0E1 E1E0 E0D0 D0D1 D1C1"/>
    </vehicle>
    <vehicle id="26" type="car" depart="103.90">
        <route edges="B0B1 B1C1 C1D1 D1C1 C1B1 B1B0 B0A0"/>
    </vehicle>
    <vehicle id="27" type="car" depart="107.76">
        <route edges="A1A0 A0B0"/>
    </vehicle>
    <vehicle id="28" type="car" depart="111.76">
        <route edges="B1B2 B2C2 C2B2 B2C2 C2B2 B2A2 A2A1"/>
    </vehicle>
    <vehicle id="29" type="bus" depart="115.93">
        <route edges="D2C2 C2D2 D2E2 E2E1 E1E0 E0D0 D0C0"/>
    </vehicle>
    <vehicle id="30" type="truck" depart="119.94">
        <route edges="D1D2 D2C2 C2B2 B2C2 C2B2 B2B1"/>
    </vehicle>
    <vehicle id="31" type="bus" depart="124.37">
        <route edges="E1D1 D1C1"/>
    </vehicle>
    <vehicle id="32" type="car" depart="127.98">
        <route edges="B2A2 A2A1 A1B1"/>
    </vehicle>
    <vehicle id="33" type="bus" depart="132.46">
        <route edges="D2E2 E2E1 E1E0 E0D0 D0E0 E0E1"/>
    </vehicle>
    <vehicle id="34" type="car" depart="136.00">
        <route edges="B1B2 B2C2 C2C1"/>
    </vehicle>
    <vehicle id="35" type="truck" depart="139.64">
        <route edges="B1C1 C1C2 C2D2 D2D1 D1D2 D2C2"/>
    </vehicle>
    <vehicle id="36" type="bus" depart="143.79">
        <route edges="C2B2 B2C2 C2D2 D2D1 D1C1 C1B1 B1A1"/>
    </vehicle>
    <vehicle id="37" type="truck" depart="148.14">
        <route edges="E1D1 D1C1"/>
    </vehicle>
    <vehicle id="38" type="truck" depart="152.24">
        <route edges="D2D1 D1D2 D2C2 C2B2 B2A2 A2A1 A1B1"/>
    </vehicle>
    <vehicle id="39" type="car" depart="155.92">
        <route edges="C0C1 C1C2 C2C1"/>
    </vehicle>
    <vehicle id="40" type="truck" depart="159.62">
        <route edges="D1C1 C1B1 B1B2 B2C2 C2D2"/>
    </vehicle>
    <vehicle id="41" type="truck" depart="163.69">
        <route edges="D2C2 C2D2 D2E2 E2E1 E1E0 E0D0 D0C0"/>
    </vehicle>
    <vehicle id="42" type="bus" depart="167.99">
        <route edges="D1C1 C1B1 B1A1 A1A2"/>
    </vehicle>
    <vehicle id="43" type="bus" depart="172.17">
        <route edges="D1D0 D0D1 D1E1"/>
    </vehicle>
    <vehicle id="44" type="truck" depart="175.75">
        <route edges="A1A2 A2B2 B2C2"/>
    </vehicle>
    <vehicle id="45" type="truck" depart="180.02">
        <route edges="E0E1 E1E2 E2D2 D2C2 C2C1"/>
    </vehicle>
    <vehicle id="46" type="car" depart="181.61">
        <route edges="C2C1 C1D1"/>
    </vehicle>
    <vehicle id="47" type="truck" depart="183.13">
        <route edges="B0A0 A0A1 A1A0 A0B0 B0C0 C0B0"/>
    </vehicle>
    <vehicle id="48" type="car" depart="185.39">
        <route edges="C1C2 C2D2 D2E2 E2E1 E1E2"/>
    </vehicle>
    <vehicle id="49" type="car" depart="187.86">
        <route edges="D0D1 D1D0 D0C0 C0C1 C1D1"/>
    </vehicle>
    <vehicle id="50" type="bus" depart="189.97">
        <route edges="E1E2 E2D2 D2C2 C2B2 B2A2"/>
    </vehicle>
    <vehicle id="51" type="car" depart="191.50">
        <route edges="C2B2 B2C2 C2B2 B2B1"/>
    </vehicle>
    <vehicle id="52" type="car" depart="193.90">
        <route edges="B1B2 B2C2 C2C1"/>
    </vehicle>
    <vehicle id="53" type="bus" depart="196.00">
        <route edges="D0D1 D1D0 D0C0 C0C1 C1D1"/>
    </vehicle>
    <vehicle id="54" type="bus" depart="198.05">
        <route edges="B2C2 C2D2"/>
    </vehicle>
    <vehicle id="55" type="car" depart="199.60">
        <route edges="E2D2 D2C2 C2D2"/>
    </vehicle>
    <vehicle id="56" type="car" depart="201.40">
        <route edges="E2D2 D2C2 C2D2"/>
    </vehicle>
    <vehicle id="57" type="truck" depart="203.46">
        <route edges="C2B2 B2C2 C2B2 B2B1"/>
    </vehicle>
    <vehicle id="58" type="truck" depart="205.74">
        <route edges="E2E1 E1E0 E0D0"/>
    </vehicle>
    <vehicle id="59" type="bus" depart="208.23">
        <route edges="C0C1 C1C2 C2B2 B2B1 B1B0"/>
    </vehicle>
    <vehicle id="60" type="truck" depart="210.68">
        <route edges="A1B1 B1B2 B2A2 A2A1 A1A0 A0B0"/>
    </vehicle>
    <vehicle id="61" type="truck" depart="213.02">
        <route edges="C0B0 B0A0 A0A1 A1A0 A0B0"/>
    </vehicle>
    <vehicle id="62" type="truck" depart="215.33">
        <route edges="D2E2 E2E1 E1E0 E0D0 D0E0 E0E1"/>
    </vehicle>
    <vehicle id="63" type="car" depart="217.55">
        <route edges="E2E1 E1D1"/>
    </vehicle>
    <vehicle id="64" type="truck" depart="219.33">
        <route edges="C1D1 D1E1 E1E0 E0D0"/>
    </vehicle>
    <vehicle id="65" type="car" depart="220.92">
        <route edges="C0C1 C1C2 C2C1"/>
    </vehicle>
    <vehicle id="66" type="truck" depart="222.98">
        <route edges="D2E2 E2E1 E1E0 E0D0 D0E0 E0E1"/>
    </vehicle>
    <vehicle id="67" type="bus" depart="225.29">
        <route edges="B1C1 C1C2 C2D2 D2D1 D1D2 D2C2"/>
    </vehicle>
    <vehicle id="68" type="bus" depart="227.65">
        <route edges="B0C0 C0B0 B0B1 B1B0 B0A0"/>
    </vehicle>
    <vehicle id="69" type="car" depart="230.13">
        <route edges="C1D1 D1E1 E1E0 E0D0"/>
    </vehicle>
    <vehicle id="70" type="car" depart="232.25">
        <route edges="D0D1 D1D0 D0C0 C0C1 C1D1"/>
    </vehicle>
    <vehicle id="71" type="truck" depart="234.42">
        <route edges="C1D1 D1E1 E1E0 E0D0"/>
    </vehicle>
    <vehicle id="72" type="car" depart="236.38">
        <route edges="A1A0 A0B0"/>
    </vehicle>
    <vehicle id="73" type="car" depart="238.82">
        <route edges="B1C1 C1C2 C2D2 D2D1 D1D2 D2C2"/>
    </vehicle>
    <vehicle id="74" type="truck" depart="240.89">
        <route edges="C0C1 C1B1 B1B2 B2C2 C2D2 D2E2 E2E1"/>
    </vehicle>
    <vehicle id="75" type="bus" depart="242.95">
        <route edges="B1A1 A1A0 A0B0 B0B1"/>
    </vehicle>
    <vehicle id="76" type="car" depart="244.68">
        <route edges="C1C2 C2D2 D2E2 E2E1 E1E2"/>
    </vehicle>
    <vehicle id="77" type="truck" depart="247.15">
        <route edges="A1A0 A0B0 B0C0 C0D0 D0E0 E0E1"/>
    </vehicle>
    <vehicle id="78" type="truck" depart="248.70">
        <route edges="E2E1 E1E0 E0D0"/>
    </vehicle>
    <vehicle id="79" type="bus" depart="250.37">
        <route edges="D1D0 D0C0 C0B0 B0A0"/>
    </vehicle>
    <vehicle id="80" type="truck" depart="251.93">
        <route edges="A1A0 A0B0 B0C0 C0D0 D0E0 E0E1"/>
    </vehicle>
    <vehicle id="81" type="car" depart="254.41">
        <route edges="C0C1 C1C2 C2C1"/>
    </vehicle>
    <vehicle id="82" type="bus" depart="256.22">
        <route edges="D1D0 D0C0 C0D0 D0E0 E0E1"/>
    </vehicle>
    <vehicle id="83" type="bus" depart="258.51">
        <route edges="A2B2 B2C2 C2D2 D2C2 C2B2"/>
    </vehicle>
    <vehicle id="84" type="truck" depart="260.22">
        <route edges="D2E2 E2E1 E1D1 D1D0"/>
    </vehicle>
    <vehicle id="85" type="bus" depart="262.25">
        <route edges="B1C1 C1C2 C2D2 D2D1 D1D2 D2C2"/>
    </vehicle>
    <vehicle id="86" type="truck" depart="264.50">
        <route edges="C2C1 C1C0 C0B0 B0C0 C0B0 B0C0 C0B0"/>
    </vehicle>
    <vehicle id="87" type="bus" depart="266.51">
        <route edges="E0E1 E1D1 D1C1 C1B1 B1C1"/>
    </vehicle>
    <vehicle id="88" type="car" depart="268.57">
        <route edges="B2C2 C2D2"/>
    </vehicle>
    <vehicle id="89" type="truck" depart="270.58">
        <route edges="E1E0 E0D0 D0D1 D1C1 C1B1 B1C1"/>
    </vehicle>
    <vehicle id="90" type="bus" depart="272.68">
        <route edges="C1C2 C2C1"/>
    </vehicle>
    <vehicle id="91" type="truck" depart="274.45">
        <route edges="B2B1 B1B2 B2A2"/>
    </vehicle>
    <vehicle id="92" type="truck" depart="276.50">
        <route edges="D0C0 C0B0 B0A0 A0A1"/>
    </vehicle>
    <vehicle id="93" type="bus" depart="278.36">
        <route edges="B1A1 A1A0 A0B0 B0B1"/>
    </vehicle>
    <vehicle id="94" type="car" depart="280.82">
        <route edges="C1C2 C2D2 D2D1 D1D2 D2E2"/>
    </vehicle>
    <vehicle id="95" type="truck" depart="282.96">
        <route edges="A0B0 B0A0 A0A1 A1A2 A2B2"/>
    </vehicle>
    <vehicle id="96" type="bus" depart="285.25">
        <route edges="C2B2 B2C2 C2D2 D2D1 D1C1 C1B1 B1A1"/>
    </vehicle>
    <vehicle id="97" type="bus" depart="287.31">
        <route edges="E1D1 D1C1"/>
    </vehicle>
    <vehicle id="98" type="bus" depart="288.91">
        <route edges="E2D2 D2C2 C2B2 B2A2"/>
    </vehicle>
    <vehicle id="99" type="bus" depart="290.44">
        <route edges="E1D1 D1C1"/>
    </vehicle>
    <vehicle id="100" type="truck" depart="292.28">
        <route edges="A2A1 A1A0 A0B0 B0C0 C0B0 B0A0"/>
    </vehicle>
    <vehicle id="101" type="car" depart="294.24">
        <route edges="D1D0 D0C0 C0B0 B0A0"/>
    </vehicle>
    <vehicle id="102" type="bus" depart="296.43">
        <route edges="C0D0 D0C0 C0C1 C1D1"/>
    </vehicle>
    <vehicle id="103" type="truck" depart="298.53">
        <route edges="E0D0 D0C0 C0D0 D0C0 C0D0"/>
    </vehicle>
    <vehicle id="104" type="truck" depart="300.95">
        <route edges="D0D1 D1D0 D0C0 C0C1 C1D1"/>
    </vehicle>
    <vehicle id="105" type="truck" depart="303.26">
        <route edges="C0B0 B0A0 A0A1 A1B1"/>
    </vehicle>
    <vehicle id="106" type="car" depart="305.41">
        <route edges="D0C0 C0C1 C1C2 C2B2 B2C2 C2D2 D2C2"/>
    </vehicle>
    <vehicle id="107" type="truck" depart="307.10">
        <route edges="D2C2 C2D2 D2E2 E2E1 E1E0 E0D0 D0C0"/>
    </vehicle>
    <vehicle id="108" type="bus" depart="309.55">
        <route edges="B1B0 B0A0"/>
    </vehicle>
    <vehicle id="109" type="bus" depart="311.85">
        <route edges="B2C2 C2D2 D2C2"/>
    </vehicle>
    <vehicle id="110" type="car" depart="313.89">
        <route edges="D2C2 C2C1 C1C0 C0C1 C1D1"/>
    </vehicle>
    <vehicle id="111" type="bus" depart="315.42">
        <route edges="B2B1 B1B2 B2A2"/>
    </vehicle>
    <vehicle id="112" type="truck" depart="317.02">
        <route edges="D2D1 D1D2"/>
    </vehicle>
    <vehicle id="113" type="car" depart="319.34">
        <route edges="D2E2 E2E1 E1E0 E0D0 D0E0 E0E1"/>
    </vehicle>
    <vehicle id="114" type="bus" depart="321.68">
        <route edges="D1C1 C1B1 B1B2 B2C2 C2D2"/>
    </vehicle>
    <vehicle id="115" type="car" depart="323.42">
        <route edges="B1B2 B2A2 A2A1"/>
    </vehicle>
    <vehicle id="116" type="bus" depart="325.70">
        <route edges="D2C2 C2C1 C1C0 C0C1 C1D1"/>
    </vehicle>
    <vehicle id="117" type="truck" depart="327.35">
        <route edges="A2B2 B2C2 C2D2 D2C2 C2B2"/>
    </vehicle>
    <vehicle id="118" type="bus" depart="328.87">
        <route edges="C2D2 D2C2 C2C1 C1C0 C0C1"/>
    </vehicle>
    <vehicle id="119" type="bus" depart="331.10">
        <route edges="A1B1 B1B2 B2A2 A2A1 A1A0 A0B0"/>
    </vehicle>
    <vehicle id="120" type="bus" depart="332.89">
        <route edges="E2D2 D2C2 C2B2 B2A2"/>
    </vehicle>
    <vehicle id="121" type="truck" depart="334.49">
        <route edges="D2D1 D1D2 D2C2 C2B2 B2A2 A2A1 A1B1"/>
    </vehicle>
    <vehicle id="122" type="truck" depart="336.43">
        <route edges="B1B2 B2C2 C2C1"/>
    </vehicle>
    <vehicle id="123" type="car" depart="338.29">
        <route edges="D2C2 C2D2 D2E2 E2E1 E1E0 E0D0 D0C0"/>
    </vehicle>
    <vehicle id="124" type="car" depart="339.99">
        <route edges="B0B1 B1C1 C1D1 D1C1 C1B1 B1B0 B0A0"/>
    </vehicle>
    <vehicle id="125" type="bus" depart="341.53">
        <route edges="C2B2 B2C2 C2B2 B2B1"/>
    </vehicle>
    <vehicle id="126" type="bus" depart="343.94">
        <route edges="B2A2 A2A1 A1B1"/>
    </vehicle>
    <vehicle id="127" type="car" depart="346.20">
        <route edges="A1A0 A0B0"/>
    </vehicle>
    <vehicle id="128" type="truck" depart="348.14">
        <route edges="B2A2 A2A1 A1A0 A0B0"/>
    </vehicle>
    <vehicle id="129" type="car" depart="350.60">
        <route edges="E2D2 D2D1 D1E1 E1E0 E0D0 D0C0 C0C1"/>
    </vehicle>
    <vehicle id="130" type="bus" depart="352.88">
        <route edges="E0D0 D0E0 E0E1 E1D1 D1C1"/>
    </vehicle>
    <vehicle id="131" type="bus" depart="354.98">
        <route edges="D1E1 E1D1 D1C1"/>
    </vehicle>
    <vehicle id="132" type="car" depart="357.47">
        <route edges="C0D0 D0C0 C0D0 D0C0"/>
    </vehicle>
    <vehicle id="133" type="car" depart="359.30">
        <route edges="A2B2 B2C2 C2B2 B2A2"/>
    </vehicle>
    <vehicle id="134" type="truck" depart="360.88">
        <route edges="A1B1 B1B2 B2A2 A2A1 A1A0 A0B0"/>
    </vehicle>
    <vehicle id="135" type="truck" depart="362.08">
        <route edges="C1C2 C2C1"/>
    </vehicle>
    <vehicle id="136" type="car" depart="363.17">
        <route edges="A0B0 B0A0 A0A1 A1A2 A2B2"/>
    </vehicle>
    <vehicle id="137" type="car" depart="364.59">
        <route edges="C1C0 C0B0"/>
    </vehicle>
    <vehicle id="138" type="truck" depart="365.24">
        <route edges="B1B2 B2A2 A2A1"/>
    </vehicle>
    <vehicle id="139" type="truck" depart="366.48">
        <route edges="D2C2 C2D2 D2E2 E2E1 E1E0 E0D0 D0C0"/>
    </vehicle>
    <vehicle id="140" type="truck" depart="367.12">
        <route edges="E0D0 D0E0 E0E1 E1D1 D1C1"/>
    </vehicle>
    <vehicle id="141" type="car" depart="368.03">
        <route edges="D2D1 D1D2"/>
    </vehicle>
    <vehicle id="142" type="truck" depart="369.26">
        <route edges="D1D2 D2E2 E2E1 E1E0 E0D0"/>
    </vehicle>
    <vehicle id="143" type="car" depart="370.05">
        <route edges="C0D0 D0C0 C0C1 C1D1"/>
    </vehicle>
    <vehicle id="144" type="truck" depart="371.25">
        <route edges="B0A0 A0A1 A1B1 B1C1 C1C2 C2C1 C1D1"/>
    </vehicle>
    <vehicle id="145" type="car" depart="372.59">
        <route edges="B2A2 A2A1 A1A0 A0B0"/>
    </vehicle>
    <vehicle id="146" type="truck" depart="373.69">
        <route edges="C0C1 C1C2 C2C1"/>
    </vehicle>
    <vehicle id="147" type="bus" depart="375.15">
        <route edges="C2B2 B2C2 C2B2 B2B1"/>
    </vehicle>
    <vehicle id="148" type="truck" depart="376.28">
        <route edges="A1B1 B1B2 B2A2 A2A1 A1A0 A0B0"/>
    </vehicle>
    <vehicle id="149" type="truck" depart="377.78">
        <route edges="C0C1 C1C2 C2B2 B2B1 B1B0"/>
    </vehicle>
    <vehicle id="150" type="car" depart="378.43">
        <route edges="D2D1 D1D2"/>
    </vehicle>
    <vehicle id="151" type="car" depart="379.93">
        <route edges="E2D2 D2C2 C2D2"/>
    </vehicle>
    <vehicle id="152" type="truck" depart="380.88">
        <route edges="A1B1 B1B2 B2A2 A2A1 A1A0 A0B0"/>
    </vehicle>
    <vehicle id="153" type="car" depart="381.42">
        <route edges="C1D1 D1D2"/>
    </vehicle>
    <vehicle id="154" type="bus" depart="382.01">
        <route edges="C1D1 D1D2 D2E2"/>
    </vehicle>
    <vehicle id="155" type="truck" depart="383.50">
        <route edges="C1D1 D1D2 D2E2"/>
    </vehicle>
    <vehicle id="156" type="truck" depart="384.64">
        <route edges="B0A0 A0A1 A1B1 B1C1 C1B1 B1A1 A1B1"/>
    </vehicle>
    <vehicle id="157" type="bus" depart="385.32">
        <route edges="C1D1 D1E1 E1E0 E0D0"/>
    </vehicle>
    <vehicle id="158" type="car" depart="386.42">
        <route edges="C2D2 D2C2 C2C1 C1C0 C0C1"/>
    </vehicle>
    <vehicle id="159" type="bus" depart="387.40">
        <route edges="D0D1 D1D2 D2D1 D1D0 D0C0 C0D0 D0E0"/>
    </vehicle>
    <vehicle id="160" type="car" depart="388.78">
        <route edges="D0D1 D1D2 D2D1 D1D0 D0C0 C0D0 D0E0"/>
    </vehicle>
    <vehicle id="161" type="bus" depart="389.72">
        <route edges="B1B0 B0A0"/>
    </vehicle>
    <vehicle id="162" type="bus" depart="390.81">
        <route edges="C0B0 B0A0 A0A1 A1B1"/>
    </vehicle>
    <vehicle id="163" type="bus" depart="391.86">
        <route edges="D0D1 D1D0 D0C0 C0C1 C1D1"/>
    </vehicle>
    <vehicle id="164" type="bus" depart="392.53">
        <route edges="E1D1 D1D2 D2E2"/>
    </vehicle>
    <vehicle id="165" type="bus" depart="393.81">
        <route edges="D1D2 D2C2 C2B2 B2C2 C2B2 B2B1"/>
    </vehicle>
    <vehicle id="166" type="car" depart="394.92">
        <route edges="D2C2 C2C1 C1C0 C0C1 C1D1"/>
    </vehicle>
    <vehicle id="167" type="truck" depart="396.23">
        <route edges="A1A0 A0B0 B0C0 C0D0 D0E0 E0E1"/>
    </vehicle>
    <vehicle id="168" type="bus" depart="396.88">
        <route edges="E2E1 E1D1 D1D2 D2E2"/>
    </vehicle>
    <vehicle id="169" type="car" depart="398.19">
        <route edges="D1D2 D2C2 C2B2 B2C2 C2B2 B2B1"/>
    </vehicle>
    <vehicle id="170" type="truck" depart="399.23">
        <route edges="C2D2 D2C2 C2C1 C1C0 C0C1"/>
    </vehicle>
    <vehicle id="171" type="truck" depart="400.23">
        <route edges="C1C0 C0C1"/>
    </vehicle>
    <vehicle id="172" type="bus" depart="401.08">
        <route edges="B2C2 C2D2 D2C2"/>
    </vehicle>
    <vehicle id="173" type="truck" depart="402.13">
        <route edges="A1A2 A2B2 B2A2 A2A1 A1A0 A0B0"/>
    </vehicle>
    <vehicle id="174" type="car" depart="403.50">
        <route edges="A1B1 B1B2 B2A2 A2A1 A1A0 A0B0"/>
    </vehicle>
    <vehicle id="175" type="bus" depart="404.75">
        <route edges="B2A2 A2A1 A1A0 A0B0"/>
    </vehicle>
    <vehicle id="176" type="truck" depart="405.59">
        <route edges="D0E0 E0E1 E1E0 E0D0 D0D1 D1C1"/>
    </vehicle>
    <vehicle id="177" type="bus" depart="406.61">
        <route edges="A1A0 A0B0"/>
    </vehicle>
    <vehicle id="178" type="truck" depart="407.74">
        <route edges="A1A2 A2B2 B2C2"/>
    </vehicle>
    <vehicle id="179" type="bus" depart="408.27">
        <route edges="A0A1 A1B1 B1C1 C1D1 D1D2"/>
    </vehicle>
    <vehicle id="180" type="truck" depart="409.19">
        <route edges="B0C0 C0B0 B0B1 B1B0 B0A0"/>
    </vehicle>
    <vehicle id="181" type="bus" depart="410.48">
        <route edges="C2B2 B2C2 C2D2 D2D1 D1C1 C1B1 B1A1"/>
    </vehicle>
    <vehicle id="182" type="bus" depart="411.93">
        <route edges="E1E0 E0D0 D0D1 D1C1 C1B1 B1C1"/>
    </vehicle>
    <vehicle id="183" type="truck" depart="412.96">
        <route edges="C0D0 D0C0 C0D0 D0C0"/>
    </vehicle>
    <vehicle id="184" type="bus" depart="413.67">
        <route edges="C2C1 C1C0 C0B0 B0C0 C0B0 B0C0 C0B0"/>
    </vehicle>
    <vehicle id="185" type="bus" depart="414.57">
        <route edges="C0D0 D0C0 C0D0 D0C0"/>
    </vehicle>
    <vehicle id="186" type="truck" depart="415.55">
        <route edges="C1C0 C0B0"/>
    </vehicle>
    <vehicle id="187" type="bus" depart="416.52">
        <route edges="C0D0 D0E0 E0E1 E1E0 E0D0 D0D1"/>
    </vehicle>
    <vehicle id="188" type="bus" depart="417.94">
        <route edges="D2D1 D1D0"/>
    </vehicle>
    <vehicle id="189" type="bus" depart="418.71">
        <route edges="C1C2 C2D2 D2E2 E2E1 E1E2"/>
    </vehicle>
    <vehicle id="190" type="bus" depart="419.79">
        <route edges="C2B2 B2C2 C2B2 B2B1"/>
    </vehicle>
    <vehicle id="191" type="car" depart="420.43">
        <route edges="D2C2 C2C1 C1C0 C0C1 C1D1"/>
    </vehicle>
    <vehicle id="192" type="truck" depart="421.62">
        <route edges="A1A2 A2B2 B2A2 A2A1 A1A0 A0B0"/>
    </vehicle>
    <vehicle id="193" type="truck" depart="423.00">
        <route edges="D0C0 C0C1 C1C2 C2B2 B2C2 C2D2 D2C2"/>
    </vehicle>
    <vehicle id="194" type="truck" depart="423.53">
        <route edges="C0C1 C1B1 B1B2 B2C2 C2D2 D2E2 E2E1"/>
    </vehicle>
    <vehicle id="195" type="bus" depart="424.26">
        <route edges="D1E1 E1D1 D1C1"/>
    </vehicle>
    <vehicle id="196" type="car" depart="425.41">
        <route edges="E0E1 E1D1 D1C1 C1B1 B1C1"/>
    </vehicle>
    <vehicle id="197" type="car" depart="426.75">
        <route edges="A2B2 B2C2 C2B2"/>
    </vehicle>
    <vehicle id="198" type="truck" depart="428.19">
        <route edges="A0B0 B0A0 A0A1 A1A2 A2B2"/>
    </vehicle>
    <vehicle id="199" type="car" depart="429.40">
        <route edges="D2D1 D1D2 D2C2 C2B2 B2A2 A2A1 A1B1"/>
    </vehicle>
    <vehicle id="200" type="bus" depart="430.55">
        <route edges="E0D0 D0C0 C0D0 D0C0 C0D0"/>
    </vehicle>
    <vehicle id="201" type="bus" depart="431.16">
        <route edges="A2B2 B2C2 C2B2 B2A2"/>
    </vehicle>
    <vehicle id="202" type="truck" depart="432.46">
        <route edges="E0D0 D0E0 E0E1 E1D1 D1C1"/>
    </vehicle>
    <vehicle id="203" type="car" depart="433.92">
        <route edges="C1D1 D1E1 E1E0 E0D0"/>
    </vehicle>
    <vehicle id="204" type="car" depart="434.71">
        <route edges="C1D1 D1E1 E1E0 E0D0"/>
    </vehicle>
    <vehicle id="205" type="bus" depart="435.99">
        <route edges="D0D1 D1D0 D0C0 C0C1 C1D1"/>
    </vehicle>
    <vehicle id="206" type="bus" depart="437.33">
        <route edges="B2B1 B1C1 C1C2"/>
    </vehicle>
    <vehicle id="207" type="truck" depart="438.04">
        <route edges="A2B2 B2C2 C2D2 D2C2 C2B2"/>
    </vehicle>
    <vehicle id="208" type="bus" depart="439.31">
        <route edges="B0B1 B1C1 C1D1 D1C1 C1B1 B1B0 B0A0"/>
    </vehicle>
    <vehicle id="209" type="car" depart="439.85">
        <route edges="B1C1 C1C2 C2D2 D2D1 D1D2 D2C2"/>
    </vehicle>
    <vehicle id="210" type="car" depart="441.17">
        <route edges="C0C1 C1C2 C2C1"/>
    </vehicle>
    <vehicle id="211" type="bus" depart="441.76">
        <route edges="E0E1 E1E2 E2D2 D2C2 C2C1"/>
    </vehicle>
    <vehicle id="212" type="car" depart="442.82">
        <route edges="D1D2 D2C2 C2B2 B2C2 C2B2 B2B1"/>
    </vehicle>
    <vehicle id="213" type="truck" depart="443.47">
        <route edges="B2A2 A2A1 A1A2 A2B2 B2A2 A2A1"/>
    </vehicle>
    <vehicle id="214" type="truck" depart="444.15">
        <route edges="A1A2 A2B2 B2C2"/>
    </vehicle>
    <vehicle id="215" type="bus" depart="445.51">
        <route edges="D1D0 D0C0 C0B0 B0A0"/>
    </vehicle>
    <vehicle id="216" type="truck" depart="446.57">
        <route edges="E2E1 E1D1 D1D2 D2E2"/>
    </vehicle>
    <vehicle id="217" type="car" depart="447.52">
        <route edges="D1C1 C1B1 B1A1 A1A2"/>
    </vehicle>
    <vehicle id="218" type="car" depart="448.73">
        <route edges="D0C0 C0C1 C1C2 C2B2 B2C2 C2D2 D2C2"/>
    </vehicle>
    <vehicle id="219" type="truck" depart="449.75">
        <route edges="D2D1 D1D2"/>
    </vehicle>
    <vehicle id="220" type="bus" depart="450.58">
        <route edges="B1A1 A1A0 A0B0 B0B1"/>
    </vehicle>
    <vehicle id="221" type="truck" depart="451.55">
        <route edges="E0D0 D0C0 C0D0 D0C0 C0D0"/>
    </vehicle>
    <vehicle id="222" type="truck" depart="452.38">
        <route edges="C1D1 D1D2 D2E2"/>
    </vehicle>
    <vehicle id="223" type="bus" depart="453.84">
        <route edges="B1B2 B2C2 C2B2 B2C2 C2B2 B2A2 A2A1"/>
    </vehicle>
    <vehicle id="224" type="bus" depart="454.69">
        <route edges="C1D1 D1D2"/>
    </vehicle>
    <vehicle id="225" type="bus" depart="455.65">
        <route edges="D0E0 E0E1 E1E0 E0D0 D0D1 D1C1"/>
    </vehicle>
    <vehicle id="226" type="car" depart="457.07">
        <route edges="A2A1 A1A0 A0B0 B0C0 C0B0 B0A0"/>
    </vehicle>
    <vehicle id="227" type="bus" depart="458.46">
        <route edges="B2B1 B1B2 B2A2"/>
    </vehicle>
    <vehicle id="228" type="bus" depart="459.39">
        <route edges="D2C2 C2C1 C1C0 C0C1 C1D1"/>
    </vehicle>
    <vehicle id="229" type="car" depart="460.36">
        <route edges="D1D2 D2C2 C2B2 B2C2 C2B2 B2B1"/>
    </vehicle>
    <vehicle id="230" type="car" depart="460.88">
        <route edges="C1D1 D1D2 D2E2"/>
    </vehicle>
    <vehicle id="231" type="truck" depart="462.08">
        <route edges="E2E1 E1D1"/>
    </vehicle>
    <vehicle id="232" type="bus" depart="463.21">
        <route edges="E2D2 D2C2 C2B2 B2A2"/>
    </vehicle>
    <vehicle id="233" type="truck" depart="463.89">
        <route edges="B0A0 A0A1 A1B1 B1C1 C1B1 B1A1 A1B1"/>
    </vehicle>
    <vehicle id="234" type="bus" depart="464.82">
        <route edges="C2C1 C1D1"/>
    </vehicle>
    <vehicle id="235" type="bus" depart="465.46">
        <route edges="B2B1 B1C1 C1C2"/>
    </vehicle>
    <vehicle id="236" type="bus" depart="466.58">
        <route edges="B1C1 C1C2 C2D2 D2D1 D1D2 D2C2"/>
    </vehicle>
    <vehicle id="237" type="truck" depart="467.70">
        <route edges="C1B1 B1C1 C1D1"/>
    </vehicle>
    <vehicle id="238" type="car" depart="468.27">
        <route edges="C2C1 C1D1"/>
    </vehicle>
    <vehicle id="239" type="truck" depart="469.25">
        <route edges="C0C1 C1C2 C2B2 B2B1 B1B0"/>
    </vehicle>
    <vehicle id="240" type="car" depart="470.39">
        <route edges="B2A2 A2A1 A1B1"/>
    </vehicle>
    <vehicle id="241" type="car" depart="471.11">
        <route edges="C1C0 C0C1"/>
    </vehicle>
    <vehicle id="242" type="bus" depart="472.57">
        <route edges="D1C1 C1B1 B1A1 A1A2"/>
    </vehicle>
    <vehicle id="243" type="car" depart="473.91">
        <route edges="A0A1 A1B1 B1B0 B0C0 C0B0 B0B1"/>
    </vehicle>
    <vehicle id="244" type="car" depart="474.91">
        <route edges="A0B0 B0C0 C0B0"/>
    </vehicle>
    <vehicle id="245" type="car" depart="475.58">
        <route edges="C1C0 C0C1"/>
    </vehicle>
    <vehicle id="246" type="car" depart="476.86">
        <route edges="E0D0 D0C0"/>
    </vehicle>
    <vehicle id="247" type="bus" depart="477.93">
        <route edges="C1C0 C0B0 B0B1 B1A1 A1B1"/>
    </vehicle>
    <vehicle id="248" type="truck" depart="478.67">
        <route edges="C1C0 C0B0 B0B1 B1A1 A1B1"/>
    </vehicle>
    <vehicle id="249" type="car" depart="479.85">
        <route edges="A1A2 A2B2 B2B1 B1B2 B2B1 B1C1"/>
    </vehicle>
    <vehicle id="250" type="car" depart="480.91">
        <route edges="C1D1 D1E1 E1E0 E0D0"/>
    </vehicle>
    <vehicle id="251" type="bus" depart="481.60">
        <route edges="E1E2 E2D2"/>
    </vehicle>
    <vehicle id="252" type="truck" depart="483.03">
        <route edges="E2D2 D2C2 C2B2 B2A2"/>
    </vehicle>
    <vehicle id="253" type="bus" depart="484.32">
        <route edges="C1C0 C0C1"/>
    </vehicle>
    <vehicle id="254" type="truck" depart="485.29">
        <route edges="D2C2 C2C1 C1C0 C0C1 C1D1"/>
    </vehicle>
    <vehicle id="255" type="truck" depart="485.87">
        <route edges="E0E1 E1D1 D1C1 C1B1 B1C1"/>
    </vehicle>
    <vehicle id="256" type="car" depart="486.47">
        <route edges="D2C2 C2C1 C1C0 C0C1 C1D1"/>
    </vehicle>
    <vehicle id="257" type="car" depart="487.96">
        <route edges="E0D0 D0C0"/>
    </vehicle>
    <vehicle id="258" type="bus" depart="488.89">
        <route edges="B2A2 A2A1 A1B1"/>
    </vehicle>
    <vehicle id="259" type="bus" depart="490.26">
        <route edges="D2D1 D1D2"/>
    </vehicle>
    <vehicle id="260" type="bus" depart="490.78">
        <route edges="C2B2 B2C2 C2D2 D2D1 D1C1 C1B1 B1A1"/>
    </vehicle>
    <vehicle id="261" type="truck" depart="492.20">
        <route edges="A1A0 A0B0 B0C0 C0D0 D0E0 E0E1"/>
    </vehicle>
    <vehicle id="262" type="bus" depart="492.79">
        <route edges="B2A2 A2A1 A1B1"/>
    </vehicle>
    <vehicle id="263" type="bus" depart="493.30">
        <route edges="B1B2 B2A2 A2A1"/>
    </vehicle>
    <vehicle id="264" type="bus" depart="494.80">