<?xml version="1.0" ?>
<routes>
    <vType id="car" accel="2.6" decel="4.5" sigma="0.5" length="5" maxSpeed="70"/>
    <vType id="bus" accel="1.2" decel="4.0" sigma="0.5" length="12" maxSpeed="50"/>
    <vType id="truck" accel="1.0" decel="4.0" sigma="0.5" length="8" maxSpeed="60"/>
    <vehicle id="0" type="truck" depart="0.00">
        <route edges="A1B1 B1C1 C1D1"/>
    </vehicle>
    <vehicle id="1" type="truck" depart="2.02">
        <route edges="E2D2 D2D1 D1D2"/>
    </vehicle>
    <vehicle id="2" type="bus" depart="4.03">
        <route edges="B1B0 B0A0 A0A1"/>
    </vehicle>
    <vehicle id="3" type="truck" depart="6.85">
        <route edges="A1B1 B1B0 B0B1"/>
    </vehicle>
    <vehicle id="4" type="car" depart="9.33">
        <route edges="B1B2 B2C2 C2B2 B2B1"/>
    </vehicle>
    <vehicle id="5" type="car" depart="11.66">
        <route edges="B0B1 B1B2 B2C2 C2D2"/>
    </vehicle>
    <vehicle id="6" type="car" depart="13.57">
        <route edges="A1A0 A0B0 B0C0 C0D0 D0E0"/>
    </vehicle>
    <vehicle id="7" type="bus" depart="16.13">
        <route edges="C0C1 C1C0"/>
    </vehicle>
    <vehicle id="8" type="truck" depart="18.77">
        <route edges="D1D2 D2E2"/>
    </vehicle>
    <vehicle id="9" type="car" depart="20.82">
        <route edges="B2B1 B1C1 C1D1 D1E1"/>
    </vehicle>
    <vehicle id="10" type="truck" depart="23.48">
        <route edges="E1E2 E2D2"/>
    </vehicle>
    <vehicle id="11" type="car" depart="25.94">
        <route edges="A2A1 A1A0 A0B0 B0C0"/>
    </vehicle>
    <vehicle id="12" type="truck" depart="28.19">
        <route edges="C0B0 B0A0 A0A1 A1A2 A2B2"/>
    </vehicle>
    <vehicle id="13" type="car" depart="31.06">
        <route edges="D1D2 D2E2 E2E1 E1E2 E2D2"/>
    </vehicle>
    <vehicle id="14" type="car" depart="33.84">
        <route edges="D0D1 D1D0 D0D1 D1E1 E1E0"/>
    </vehicle>
    <vehicle id="15" type="truck" depart="35.98">
        <route edges="D2D1 D1C1 C1B1 B1C1"/>
    </vehicle>
    <vehicle id="16" type="bus" depart="38.77">
        <route edges="B2C2 C2B2 B2A2 A2A1 A1A0"/>
    </vehicle>
    <vehicle id="17" type="truck" depart="40.87">
        <route edges="B2A2 A2A1 A1A0 A0B0"/>
    </vehicle>
    <vehicle id="18" type="car" depart="43.49">
        <route edges="B0B1 B1A1 A1A2 A2B2 B2C2"/>
    </vehicle>
    <vehicle id="19" type="truck" depart="45.93">
        <route edges="E2D2 D2D1 D1D2"/>
    </vehicle>
    <vehicle id="20" type="bus" depart="48.73">
        <route edges="C2C1 C1C0 C0B0 B0B1"/>
    </vehicle>
    <vehicle id="21" type="truck" depart="51.62">
        <route edges="B2C2 C2B2 B2A2 A2A1 A1B1"/>
    </vehicle>
    <vehicle id="22" type="bus" depart="54.26">
        <route edges="C2D2 D2E2 E2E1 E1E0 E0D0"/>
    </vehicle>
    <vehicle id="23" type="car" depart="56.26">
        <route edges="A2B2 B2A2 A2A1 A1B1"/>
    </vehicle>
    <vehicle id="24" type="truck" depart="58.99">
        <route edges="A1B1 B1B0 B0A0 A0A1"/>
    </vehicle>
    <vehicle id="25" type="bus" depart="61.79">
        <route edges="A0B0 B0C0 C0D0"/>
    </vehicle>
    <vehicle id="26" type="car" depart="63.86">
        <route edges="C1C0 C0D0 D0C0 C0B0 B0C0"/>
    </vehicle>
    <vehicle id="27" type="bus" depart="66.55">
        <route edges="C0C1 C1C0"/>
    </vehicle>
    <vehicle id="28" type="car" depart="68.98">
        <route edges="C1C0 C0D0 D0D1 D1D2"/>
    </vehicle>
    <vehicle id="29" type="truck" depart="71.31">
        <route edges="A2A1 A1B1 B1C1"/>
    </vehicle>
    <vehicle id="30" type="truck" depart="73.56">
        <route edges="B0A0 A0A1 A1B1 B1C1"/>
    </vehicle>
    <vehicle id="31" type="truck" depart="75.81">
        <route edges="A1A0 A0B0 B0C0 C0D0 D0E0"/>
    </vehicle>
    <vehicle id="32" type="bus" depart="78.40">
        <route edges="C1C0 C0D0 D0D1 D1D2"/>
    </vehicle>
    <vehicle id="33" type="truck" depart="80.37">
        <route edges="A0B0 B0C0 C0D0 D0E0"/>
    </vehicle>
    <vehicle id="34" type="bus" depart="82.76">
        <route edges="A1A0 A0B0 B0C0 C0D0 D0E0"/>
    </vehicle>
    <vehicle id="35" type="bus" depart="84.91">
        <route edges="B1B2 B2C2 C2D2 D2E2 E2E1"/>
    </vehicle>
    <vehicle id="36" type="bus" depart="86.93">
        <route edges="C0B0 B0A0 A0A1"/>
    </vehicle>
    <vehicle id="37" type="bus" depart="89.26">
        <route edges="C1B1 B1A1 A1B1 B1C1"/>
    </vehicle>
    <vehicle id="38" type="bus" depart="91.43">
        <route edges="C2C1 C1C0 C0B0 B0B1"/>
    </vehicle>
    <vehicle id="39" type="truck" depart="94.16">
        <route edges="A0B0 B0C0 C0B0 B0A0"/>
    </vehicle>
    <vehicle id="40" type="car" depart="96.70">
        <route edges="D1E1 E1E0 E0D0 D0C0 C0C1"/>
    </vehicle>
    <vehicle id="41" type="bus" depart="99.39">
        <route edges="C1C2 C2C1 C1C0 C0B0"/>
    </vehicle>
    <vehicle id="42" type="bus" depart="102.01">
        <route edges="B1B2 B2C2 C2D2 D2E2 E2E1"/>
    </vehicle>
    <vehicle id="43" type="car" depart="104.51">
        <route edges="C1B1 B1A1 A1B1 B1C1"/>
    </vehicle>
    <vehicle id="44" type="car" depart="106.44">
        <route edges="A0A1 A1A2 A2B2"/>
    </vehicle>
    <vehicle id="45" type="truck" depart="108.56">
        <route edges="B0A0 A0A1 A1A0 A0B0"/>
    </vehicle>
    <vehicle id="46" type="bus" depart="110.75">
        <route edges="C1D1 D1C1 C1B1 B1B2 B2A2"/>
    </vehicle>
    <vehicle id="47" type="bus" depart="113.62">
        <route edges="D1D2 D2E2"/>
    </vehicle>
    <vehicle id="48" type="car" depart="116.12">
        <route edges="C1C2 C2B2"/>
    </vehicle>
    <vehicle id="49" type="truck" depart="118.16">
        <route edges="A0A1 A1A2 A2B2"/>
    </vehicle>
    <vehicle id="50" type="bus" depart="120.24">
        <route edges="E1D1 D1D0 D0E0"/>
    </vehicle>
    <vehicle id="51" type="truck" depart="122.45">
        <route edges="D0D1 D1D0 D0D1 D1E1 E1E0"/>
    </vehicle>
    <vehicle id="52" type="truck" depart="124.49">
        <route edges="C1C0 C0D0 D0C0 C0B0 B0C0"/>
    </vehicle>
    <vehicle id="53" type="truck" depart="126.81">
        <route edges="D2D1 D1D2 D2C2 C2C1"/>
    </vehicle>
    <vehicle id="54" type="bus" depart="129.55">
        <route edges="E2E1 E1E0 E0D0 D0C0 C0C1"/>
    </vehicle>
    <vehicle id="55" type="bus" depart="132.16">
        <route edges="B1A1 A1A2 A2B2 B2A2"/>
    </vehicle>
    <vehicle id="56" type="car" depart="134.54">
        <route edges="C1C0 C0D0 D0C0 C0B0 B0C0"/>
    </vehicle>
    <vehicle id="57" type="truck" depart="136.97">
        <route edges="D0D1 D1D0 D0D1 D1E1 E1E0"/>
    </vehicle>
    <vehicle id="58" type="bus" depart="139.07">
        <route edges="A1A2 A2B2 B2B1"/>
    </vehicle>
    <vehicle id="59" type="bus" depart="141.33">
        <route edges="B1B0 B0A0 A0A1"/>
    </vehicle>
    <vehicle id="60" type="bus" depart="144.01">
        <route edges="C1D1 D1C1 C1B1 B1B2 B2A2"/>
    </vehicle>
    <vehicle id="61" type="bus" depart="145.97">
        <route edges="A0A1 A1A2"/>
    </vehicle>
    <vehicle id="62" type="bus" depart="148.79">
        <route edges="C1C0 C0D0 D0D1 D1D2"/>
    </vehicle>
    <vehicle id="63" type="truck" depart="151.38">
        <route edges="D0C0 C0B0 B0A0"/>
    </vehicle>
    <vehicle id="64" type="car" depart="153.94">
        <route edges="B2C2 C2B2 B2A2 A2A1 A1A0"/>
    </vehicle>
    <vehicle id="65" type="bus" depart="155.98">
        <route edges="E2E1 E1E2 E2D2 D2C2"/>
    </vehicle>
    <vehicle id="66" type="truck" depart="157.91">
        <route edges="B1A1 A1A2 A2B2 B2A2"/>
    </vehicle>
    <vehicle id="67" type="bus" depart="160.07">
        <route edges="B1B2 B2C2 C2D2 D2E2 E2E1"/>
    </vehicle>
    <vehicle id="68" type="car" depart="162.66">
        <route edges="A0B0 B0C0 C0D0"/>
    </vehicle>
    <vehicle id="69" type="truck" depart="164.84">
        <route edges="B2C2 C2B2 B2A2 A2A1 A1B1"/>
    </vehicle>
    <vehicle id="70" type="truck" depart="167.50">
        <route edges="C1C0 C0D0 D0C0 C0B0 B0C0"/>
    </vehicle>
    <vehicle id="71" type="car" depart="169.85">
        <route edges="E2D2 D2D1 D1D2"/>
    </vehicle>
    <vehicle id="72" type="truck" depart="171.95">
        <route edges="B1A1 A1A2 A2B2 B2A2 A2A1"/>
    </vehicle>
    <vehicle id="73" type="car" depart="174.43">
        <route edges="B1B2 B2C2 C2B2 B2B1"/>
    </vehicle>
    <vehicle id="74" type="bus" depart="177.06">
        <route edges="A2B2 B2A2 A2A1 A1B1"/>
    </vehicle>
    <vehicle id="75" type="car" depart="179.23">
        <route edges="A1B1 B1B0 B0B1"/>
    </vehicle>
    <vehicle id="76" type="truck" depart="181.49">
        <route edges="B2C2 C2C1 C1C0 C0B0"/>
    </vehicle>
    <vehicle id="77" type="truck" depart="182.47">
        <route edges="B2B1 B1C1 C1D1 D1E1"/>
    </vehicle>
    <vehicle id="78" type="car" depart="183.99">
        <route edges="D1D2 D2E2"/>
    </vehicle>
    <vehicle id="79" type="bus" depart="185.02">
        <route edges="B1A1 A1A2 A2B2 B2A2"/>
    </vehicle>
    <vehicle id="80" type="truck" depart="186.53">
        <route edges="C1C0 C0C1 C1D1 D1D2"/>
    </vehicle>
    <vehicle id="81" type="truck" depart="187.23">
        <route edges="D0E0 E0E1 E1E2 E2D2 D2C2"/>
    </vehicle>
    <vehicle id="82" type="bus" depart="188.74">
        <route edges="B2C2 C2B2 B2A2 A2A1 A1B1"/>
    </vehicle>
    <vehicle id="83" type="truck" depart="189.89">
        <route edges="B1B2 B2C2 C2D2 D2E2 E2E1"/>
    </vehicle>
    <vehicle id="84" type="truck" depart="191.24">
        <route edges="E2E1 E1E0 E0D0 D0C0 C0C1"/>
    </vehicle>
    <vehicle id="85" type="truck" depart="192.34">
        <route edges="E0E1 E1E2 E2D2"/>
    </vehicle>
    <vehicle id="86" type="bus" depart="193.24">
        <route edges="D2C2 C2B2 B2A2 A2A1"/>
    </vehicle>
    <vehicle id="87" type="bus" depart="194.69">
        <route edges="A1A2 A2B2 B2B1 B1A1"/>
    </vehicle>
    <vehicle id="88" type="truck" depart="196.29">
        <route edges="B1B0 B0A0 A0A1"/>
    </vehicle>
    <vehicle id="89" type="truck" depart="197.45">
        <route edges="D2D1 D1D0"/>
    </vehicle>
    <vehicle id="90" type="bus" depart="198.72">
        <route edges="B0B1 B1B0"/>
    </vehicle>
    <vehicle id="91" type="bus" depart="200.13">
        <route edges="C0C1 C1C2 C2D2 D2C2 C2D2"/>
    </vehicle>
    <vehicle id="92" type="car" depart="201.74">
        <route edges="C0B0 B0A0 A0A1"/>
    </vehicle>
    <vehicle id="93" type="bus" depart="202.54">
        <route edges="A2B2 B2B1 B1B0 B0A0 A0A1"/>
    </vehicle>
    <vehicle id="94" type="bus" depart="203.40">
        <route edges="A1A2 A2B2 B2B1 B1A1"/>
    </vehicle>
    <vehicle id="95" type="truck" depart="204.57">
        <route edges="C0D0 D0C0 C0B0"/>
    </vehicle>
    <vehicle id="96" type="bus" depart="205.58">
        <route edges="D1D0 D0D1 D1D2"/>
    </vehicle>
    <vehicle id="97" type="bus" depart="206.85">
        <route edges="E1D1 D1D0 D0E0"/>
    </vehicle>
    <vehicle id="98" type="truck" depart="208.43">
        <route edges="E1D1 D1C1 C1C2 C2D2 D2E2"/>
    </vehicle>
    <vehicle id="99" type="car" depart="209.44">
        <route edges="D0E0 E0E1"/>
    </vehicle>
    <vehicle id="100" type="car" depart="210.34">
        <route edges="E1D1 D1D0 D0E0"/>
    </vehicle>
    <vehicle id="101" type="car" depart="211.28">
        <route edges="C0D0 D0C0 C0B0"/>
    </vehicle>
    <vehicle id="102" type="car" depart="212.90">
        <route edges="B1B0 B0A0 A0A1"/>
    </vehicle>
    <vehicle id="103" type="truck" depart="214.28">
        <route edges="E2E1 E1E0 E0D0 D0C0 C0C1"/>
    </vehicle>
    <vehicle id="104" type="truck" depart="215.91">
        <route edges="D0C0 C0B0 B0A0"/>
    </vehicle>
    <vehicle id="105" type="bus" depart="217.35">
        <route edges="C2C1 C1C0 C0B0"/>
    </vehicle>
    <vehicle id="106" type="car" depart="218.13">
        <route edges="D1D2 D2E2"/>
    </vehicle>
    <vehicle id="107" type="car" depart="219.69">
        <route edges="D0C0 C0B0 B0A0"/>
    </vehicle>
    <vehicle id="108" type="bus" depart="220.77">
        <route edges="A2A1 A1A0 A0B0 B0C0"/>
    </vehicle>
    <vehicle id="109" type="bus" depart="221.95">
        <route edges="B2B1 B1C1 C1D1"/>
    </vehicle>
    <vehicle id="110" type="truck" depart="222.82">
        <route edges="B0C0 C0B0"/>
    </vehicle>
    <vehicle id="111" type="truck" depart="223.67">
        <route edges="B1B2 B2C2 C2D2 D2E2 E2E1"/>
    </vehicle>
    <vehicle id="112" type="truck" depart="224.75">
        <route edges="C0B0 B0A0 A0A1 A1A2 A2B2"/>
    </vehicle>
    <vehicle id="113" type="car" depart="225.64">
        <route edges="E0E1 E1E0 E0D0 D0E0"/>
    </vehicle>
    <vehicle id="114" type="bus" depart="227.27">
        <route edges="D2D1 D1D0"/>
    </vehicle>
    <vehicle id="115" type="bus" depart="228.91">
        <route edges="A0B0 B0C0 C0D0"/>
    </vehicle>
    <vehicle id="116" type="truck" depart="229.97">
        <route edges="B2B1 B1B0 B0B1"/>
    </vehicle>
    <vehicle id="117" type="bus" depart="231.66">
        <route edges="C1C2 C2C1 C1C0 C0B0"/>
    </vehicle>
    <vehicle id="118" type="bus" depart="232.81">
        <route edges="D0D1 D1D2 D2E2 E2E1"/>
    </vehicle>
    <vehicle id="119" type="bus" depart="234.18">
        <route edges="A1B1 B1B0 B0B1"/>
    </vehicle>
    <vehicle id="120" type="car" depart="234.98">
        <route edges="A1A2 A2B2 B2B1"/>
    </vehicle>
    <vehicle id="121" type="bus" depart="236.29">
        <route edges="A1A2 A2B2 B2B1"/>
    </vehicle>
    <vehicle id="122" type="bus" depart="237.11">
        <route edges="D2D1 D1C1 C1B1 B1C1"/>
    </vehicle>
    <vehicle id="123" type="truck" depart="238.81">
        <route edges="C1B1 B1B2 B2C2"/>
    </vehicle>
    <vehicle id="124" type="car" depart="240.25">
        <route edges="E1E0 E0D0 D0E0 E0E1 E1D1"/>
    </vehicle>
    <vehicle id="125" type="bus" depart="241.46">
        <route edges="A0B0 B0C0 C0B0 B0A0"/>
    </vehicle>
    <vehicle id="126" type="truck" depart="242.20">
        <route edges="C1C2 C2B2"/>
    </vehicle>
    <vehicle id="127" type="car" depart="243.81">
        <route edges="C1B1 B1A1 A1B1 B1C1"/>
    </vehicle>
    <vehicle id="128" type="car" depart="244.82">
        <route edges="B0C0 C0B0"/>
    </vehicle>
    <vehicle id="129" type="bus" depart="246.45">
        <route edges="A2B2 B2B1 B1B0 B0A0 A0A1"/>
    </vehicle>
    <vehicle id="130" type="truck" depart="247.83">
        <route edges="B0C0 C0B0"/>
    </vehicle>
    <vehicle id="131" type="car" depart="249.40">
        <route edges="D1D0 D0D1 D1D2 D2E2"/>
    </vehicle>
    <vehicle id="132" type="car" depart="250.40">
        <route edges="D1D2 D2E2"/>
    </vehicle>
    <vehicle id="133" type="truck" depart="251.12">
        <route edges="E0E1 E1E0 E0D0 D0E0"/>
    </vehicle>
    <vehicle id="134" type="truck" depart="252.71">
        <route edges="B1B2 B2C2 C2D2 D2E2 E2E1"/>
    </vehicle>
    <vehicle id="135" type="truck" depart="253.94">
        <route edges="C0D0 D0C0"/>
    </vehicle>
    <vehicle id="136" type="truck" depart="254.82">
        <route edges="D1C1 C1B1 B1B2 B2A2"/>
    </vehicle>
    <vehicle id="137" type="truck" depart="256.13">
        <route edges="D2C2 C2C1 C1C0 C0B0 B0A0"/>
    </vehicle>
    <vehicle id="138" type="bus" depart="257.78">
        <route edges="C1C2 C2B2"/>
    </vehicle>
    <vehicle id="139" type="car" depart="259.08">
        <route edges="E0D0 D0E0"/>
    </vehicle>
    <vehicle id="140" type="bus" depart="260.12">
        <route edges="D0D1 D1D0 D0D1 D1E1 E1E0"/>
    </vehicle>
    <vehicle id="141" type="bus" depart="261.72">
        <route edges="A1A2 A2B2 B2B1 B1A1"/>
    </vehicle>
    <vehicle id="142" type="bus" depart="263.36">
        <route edges="B2A2 A2A1 A1A0 A0B0"/>
    </vehicle>
    <vehicle id="143" type="truck" depart="264.62">
        <route edges="E0E1 E1E2 E2D2"/>
    </vehicle>
    <vehicle id="144" type="car" depart="266.21">
        <route edges="C2C1 C1C0 C0B0"/>
    </vehicle>
    <vehicle id="145" type="bus" depart="267.34">
        <route edges="D1D2 D2E2"/>
    </vehicle>
    <vehicle id="146" type="truck" depart="268.20">
        <route edges="C1C0 C0D0 D0C0 C0B0 B0C0"/>
    </vehicle>
    <vehicle id="147" type="bus" depart="269.70">
        <route edges="C0D0 D0C0"/>
    </vehicle>
    <vehicle id="148" type="bus" depart="270.86">
        <route edges="E1E2 E2D2 D2E2 E2E1"/>
    </vehicle>
    <vehicle id="149" type="bus" depart="271.59">
        <route edges="C1B1 B1A1 A1B1 B1C1"/>
    </vehicle>
    <vehicle id="150" type="car" depart="272.85">
        <route edges="D2D1 D1D0"/>
    </vehicle>
    <vehicle id="151" type="bus" depart="274.50">
        <route edges="E1D1 D1C1 C1C2 C2D2 D2E2"/>
    </vehicle>
    <vehicle id="152" type="car" depart="275.92">
        <route edges="A1A2 A2B2 B2B1"/>
    </vehicle>
    <vehicle id="153" type="bus" depart="277.41">
        <route edges="C1C0 C0C1 C1D1 D1D2"/>
    </vehicle>
    <vehicle id="154" type="bus" depart="278.31">
        <route edges="A0B0 B0C0 C0B0 B0A0"/>
    </vehicle>
    <vehicle id="155" type="bus" depart="279.99">
        <route edges="D1E1 E1D1 D1E1 E1D1 D1E1"/>
    </vehicle>
    <vehicle id="156" type="car" depart="281.59">
        <route edges="B0B1 B1B0"/>
    </vehicle>
    <vehicle id="157" type="car" depart="282.38">
        <route edges="B0C0 C0B0"/>
    </vehicle>
    <vehicle id="158" type="bus" depart="283.17">
        <route edges="A2B2 B2B1 B1B0 B0A0 A0A1"/>
    </vehicle>
    <vehicle id="159" type="car" depart="284.74">
        <route edges="C1C0 C0D0 D0C0 C0B0 B0C0"/>
    </vehicle>
    <vehicle id="160" type="truck" depart="285.72">
        <route edges="D0E0 E0E1"/>
    </vehicle>
    <vehicle id="161" type="car" depart="286.80">
        <route edges="C1C2 C2B2"/>
    </vehicle>
    <vehicle id="162" type="car" depart="287.72">
        <route edges="A0A1 A1A2 A2B2"/>
    </vehicle>
    <vehicle id="163" type="truck" depart="289.23">
        <route edges="D1E1 E1E0 E0D0 D0C0 C0C1"/>
    </vehicle>
    <vehicle id="164" type="truck" depart="290.41">
        <route edges="A0B0 B0C0 C0B0 B0A0"/>
    </vehicle>
    <vehicle id="165" type="truck" depart="291.43">
        <route edges="A0B0 B0C0 C0D0 D0E0"/>
    </vehicle>
    <vehicle id="166" type="car" depart="292.69">
        <route edges="D0D1 D1D0 D0D1 D1E1 E1E0"/>
    </vehicle>
    <vehicle id="167" type="car" depart="293.91">
        <route edges="D2D1 D1C1 C1B1 B1C1"/>
    </vehicle>
    <vehicle id="168" type="truck" depart="295.52">
        <route edges="C2C1 C1C0 C0B0 B0B1"/>
    </vehicle>
    <vehicle id="169" type="car" depart="297.03">
        <route edges="D1D2 D2E2 E2E1 E1E2 E2D2"/>
    </vehicle>
    <vehicle id="170" type="bus" depart="298.13">
        <route edges="D0D1 D1D0 D0D1 D1E1 E1E0"/>
    </vehicle>
    <vehicle id="171" type="bus" depart="299.23">
        <route edges="D0D1 D1D0 D0D1 D1E1 E1E0"/>
    </vehicle>
    <vehicle id="172" type="truck" depart="300.41">
        <route edges="B2C2 C2C1 C1C0 C0B0"/>
    </vehicle>
    <vehicle id="173" type="truck" depart="301.60">
        <route edges="C0D0 D0E0 E0E1 E1E2 E2D2"/>
    </vehicle>
    <vehicle id="174" type="truck" depart="302.61">
        <route edges="E0D0 D0C0 C0B0 B0B1 B1B2"/>
    </vehicle>
    <vehicle id="175" type="truck" depart="303.43">
        <route edges="B2A2 A2A1 A1A0 A0B0"/>
    </vehicle>
    <vehicle id="176" type="bus" depart="304.53">
        <route edges="A1B1 B1B0 B0B1"/>
    </vehicle>
    <vehicle id="177" type="truck" depart="305.48">
        <route edges="D1C1 C1B1 B1B2 B2A2"/>
    </vehicle>
    <vehicle id="178" type="truck" depart="306.43">
        <route edges="C1C0 C0D0 D0D1 D1D2"/>
    </vehicle>
    <vehicle id="179" type="bus" depart="307.54">
        <route edges="D2D1 D1D2 D2C2 C2C1"/>
    </vehicle>
    <vehicle id="180" type="bus" depart="309.18">
        <route edges="C0C1 C1C0"/>
    </vehicle>
    <vehicle id="181" type="truck" depart="310.55">
        <route edges="E2D2 D2D1 D1D2"/>
    </vehicle>
    <vehicle id="182" type="car" depart="312.25">
        <route edges="C1B1 B1C1 C1B1 B1B2"/>
    </vehicle>
    <vehicle id="183" type="car" depart="313.14">
        <route edges="A1B1 B1B0 B0B1"/>
    </vehicle>
    <vehicle id="184" type="truck" depart="314.82">
        <route edges="D1D2 D2D1"/>
    </vehicle>
    <vehicle id="185" type="bus" depart="316.38">
        <route edges="C1C2 C2B2"/>
    </vehicle>
    <vehicle id="186" type="car" depart="317.49">
        <route edges="C2D2 D2C2 C2B2 B2B1"/>
    </vehicle>
    <vehicle id="187" type="bus" depart="318.40">
        <route edges="B2C2 C2B2 B2A2 A2A1 A1B1"/>
    </vehicle>
    <vehicle id="188" type="bus" depart="319.65">
        <route edges="D2C2 C2B2 B2A2 A2A1"/>
    </vehicle>
    <vehicle id="189" type="car" depart="321.21">
        <route edges="A0A1 A1A2 A2B2"/>
    </vehicle>
    <vehicle id="190" type="truck" depart="322.62">
        <route edges="E2E1 E1E0 E0D0 D0C0 C0C1"/>
    </vehicle>
    <vehicle id="191" type="truck" depart="323.85">
        <route edges="C1D1 D1E1"/>
    </vehicle>
    <vehicle id="192" type="car" depart="325.41">
        <route edges="D2D1 D1D2 D2C2 C2C1"/>
    </vehicle>
    <vehicle id="193" type="bus" depart="326.41">
        <route edges="B1A1 A1A2 A2B2 B2A2"/>
    </vehicle>
    <vehicle id="194" type="car" depart="327.19">
        <route edges="A0A1 A1A2"/>
    </vehicle>
    <vehicle id="195" type="bus" depart="328.85">
        <route edges="D1D2 D2E2"/>
    </vehicle>
    <vehicle id="196" type="car" depart="329.62">
        <route edges="B1B2 B2C2 C2B2 B2B1"/>
    </vehicle>
    <vehicle id="197" type="truck" depart="330.86">
        <route edges="B1B2 B2C2 C2B2 B2B1"/>
    </vehicle>
    <vehicle id="198" type="truck" depart="332.33">
        <route edges="C2D2 D2E2 E2E1 E1E0 E0D0"/>
    </vehicle>
    <vehicle id="199" type="truck" depart="333.16">
        <route edges="C2D2 D2C2 C2B2 B2B1"/>
    </vehicle>
    <vehicle id="200" type="bus" depart="334.16">
        <route edges="C2C1 C1B1 B1A1"/>
    </vehicle>
    <vehicle id="201" type="truck" depart="335.40">
        <route edges="A0B0 B0C0 C0B0 B0A0"/>
    </vehicle>
    <vehicle id="202" type="car" depart="337.01">
        <route edges="C2C1 C1B1 B1A1"/>
    </vehicle>
    <vehicle id="203" type="truck" depart="338.24">
        <route edges="D0E0 E0E1 E1E2 E2D2 D2C2"/>
    </vehicle>
    <vehicle id="204" type="car" depart="339.71">
        <route edges="D1C1 C1D1 D1D2"/>
    </vehicle>
    <vehicle id="205" type="truck" depart="341.18">
        <route edges="C2D2 D2E2 E2E1 E1E0 E0D0"/>
    </vehicle>
    <vehicle id="206" type="bus" depart="342.60">
        <route edges="D2D1 D1D2 D2C2 C2C1"/>
    </vehicle>
    <vehicle id="207" type="car" depart="343.97">
        <route edges="B2C2 C2C1 C1C0 C0B0"/>
    </vehicle>
    <vehicle id="208" type="car" depart="345.32">
        <route edges="A0A1 A1A2 A2B2"/>
    </vehicle>
    <vehicle id="209" type="car" depart="346.73">
        <route edges="E1D1 D1D0 D0E0"/>
    </vehicle>
    <vehicle id="210" type="bus" depart="348.13">
        <route edges="A0A1 A1A2 A2B2"/>
    </vehicle>
    <vehicle id="211" type="bus" depart="349.40">
        <route edges="A2B2 B2B1 B1B0 B0A0 A0A1"/>
    </vehicle>
    <vehicle id="212" type="truck" depart="350.71">
        <route edges="C2C1 C1B1 B1A1"/>
    </vehicle>
    <vehicle id="213" type="bus" depart="351.45">
        <route edges="E1D1 D1C1 C1C2 C2D2 D2E2"/>
    </vehicle>
    <vehicle id="214" type="bus" depart="353.07">
        <route edges="D1D0 D0D1 D1D2"/>
    </vehicle>
    <vehicle id="215" type="car" depart="354.23">
        <route edges="C1B1 B1C1 C1B1 B1B2"/>
    </vehicle>
    <vehicle id="216" type="bus" depart="355.57">
        <route edges="D2C2 C2B2 B2A2 A2A1"/>
    </vehicle>
    <vehicle id="217" type="bus" depart="356.38">
        <route edges="C1C0 C0D0 D0C0 C0B0 B0C0"/>
    </vehicle>
    <vehicle id="218" type="bus" depart="357.19">
        <route edges="C0C1 C1C0"/>
    </vehicle>
    <vehicle id="219" type="bus" depart="357.93">
        <route edges="E0D0 D0C0 C0C1 C1D1"/>
    </vehicle>
    <vehicle id="220" type="car" depart="358.93">
        <route edges="C0B0 B0A0 A0A1 A1A2 A2B2"/>
    </vehicle>
    <vehicle id="221" type="bus" depart="360.16">
        <route edges="B1A1 A1A2 A2B2 B2A2 A2A1"/>
    </vehicle>
    <vehicle id="222" type="bus" depart="361.15">
        <route edges="C2C1 C1B1 B1A1"/>
    </vehicle>
</routes>
