<?xml version="1.0" ?>
<routes>
    <vType id="car" accel="2.6" decel="4.5" sigma="0.5" length="5" maxSpeed="70"/>
    <vType id="bus" accel="1.2" decel="4.0" sigma="0.5" length="12" maxSpeed="50"/>
    <vType id="truck" accel="1.0" decel="4.0" sigma="0.5" length="8" maxSpeed="60"/>
    <vehicle id="0" type="car" depart="0.00">
        <route edges="E2D2 D2C2 C2C1 C1B1 B1B0 B0C0 C0C1"/>
    </vehicle>
    <vehicle id="1" type="car" depart="3.87">
        <route edges="A1A0 A0B0 B0C0 C0B0 B0B1"/>
    </vehicle>
    <vehicle id="2" type="truck" depart="8.11">
        <route edges="D0D1 D1E1 E1D1 D1D2 D2D1 D1C1"/>
    </vehicle>
    <vehicle id="3" type="truck" depart="12.61">
        <route edges="D0D1 D1E1 E1D1 D1C1"/>
    </vehicle>
    <vehicle id="4" type="bus" depart="16.61">
        <route edges="C1C0 C0B0"/>
    </vehicle>
    <vehicle id="5" type="car" depart="20.62">
        <route edges="A2A1 A1B1"/>
    </vehicle>
    <vehicle id="6" type="truck" depart="24.91">
        <route edges="B1B2 B2C2 C2C1 C1C2 C2B2 B2B1 B1B2"/>
    </vehicle>
    <vehicle id="7" type="bus" depart="28.55">
        <route edges="A0B0 B0C0 C0D0 D0E0 E0E1"/>
    </vehicle>
    <vehicle id="8" type="truck" depart="32.31">
        <route edges="D2C2 C2D2 D2E2 E2E1 E1E0"/>
    </vehicle>
    <vehicle id="9" type="bus" depart="36.63">
        <route edges="D0D1 D1E1 E1D1 D1C1"/>
    </vehicle>
    <vehicle id="10" type="bus" depart="40.42">
        <route edges="B2C2 C2B2"/>
    </vehicle>
    <vehicle id="11" type="car" depart="44.36">
        <route edges="B2B1 B1A1 A1A0 A0B0 B0A0 A0A1"/>
    </vehicle>
    <vehicle id="12" type="car" depart="48.31">
        <route edges="A1A0 A0B0 B0C0 C0B0 B0B1 B1A1"/>
    </vehicle>
    <vehicle id="13" type="car" depart="52.76">
        <route edges="D1D0 D0D1 D1D2 D2D1 D1D0"/>
    </vehicle>
    <vehicle id="14" type="truck" depart="56.42">
        <route edges="C2B2 B2C2"/>
    </vehicle>
    <vehicle id="15" type="car" depart="59.94">
        <route edges="B0A0 A0A1 A1B1 B1C1"/>
    </vehicle>
    <vehicle id="16" type="car" depart="63.66">
        <route edges="E2D2 D2C2 C2C1 C1B1 B1B0 B0C0 C0C1"/>
    </vehicle>
    <vehicle id="17" type="car" depart="67.19">
        <route edges="A0B0 B0A0"/>
    </vehicle>
    <vehicle id="18" type="truck" depart="70.76">
        <route edges="C1B1 B1A1 A1A0 A0B0 B0B1 B1B2"/>
    </vehicle>
    <vehicle id="19" type="car" depart="74.59">
        <route edges="A1A0 A0B0 B0C0 C0B0 B0B1 B1A1"/>
    </vehicle>
    <vehicle id="20" type="truck" depart="78.73">
        <route edges="A1A0 A0B0 B0C0 C0B0 B0B1 B1A1"/>
    </vehicle>
    <vehicle id="21" type="bus" depart="82.97">
        <route edges="A2A1 A1B1"/>
    </vehicle>
    <vehicle id="22" type="car" depart="87.45">
        <route edges="E1D1 D1E1 E1E0 E0D0 D0E0 E0E1 E1E0"/>
    </vehicle>
    <vehicle id="23" type="bus" depart="91.69">
        <route edges="C1C0 C0B0"/>
    </vehicle>
    <vehicle id="24" type="bus" depart="95.84">
        <route edges="C2B2 B2C2"/>
    </vehicle>
    <vehicle id="25" type="car" depart="99.98">
        <route edges="D2E2 E2E1 E1D1 D1C1"/>
    </vehicle>
    <vehicle id="26" type="bus" depart="103.54">
        <route edges="A0B0 B0B1"/>
    </vehicle>
    <vehicle id="27" type="bus" depart="107.35">
        <route edges="B2A2 A2A1 A1B1 B1C1"/>
    </vehicle>
    <vehicle id="28" type="bus" depart="111.65">
        <route edges="D2D1 D1D2 D2D1 D1E1 E1E2 E2D2"/>
    </vehicle>
    <vehicle id="29" type="truck" depart="115.50">
        <route edges="B1C1 C1C2"/>
    </vehicle>
    <vehicle id="30" type="bus" depart="119.82">
        <route edges="C2C1 C1B1 B1B2 B2B1 B1B0 B0A0 A0A1"/>
    </vehicle>
    <vehicle id="31" type="bus" depart="123.94">
        <route edges="A2A1 A1A0 A0B0 B0C0"/>
    </vehicle>
    <vehicle id="32" type="bus" depart="127.57">
        <route edges="A0A1 A1B1 B1A1"/>
    </vehicle>
    <vehicle id="33" type="car" depart="131.18">
        <route edges="D2D1 D1D2 D2D1 D1E1 E1E2 E2D2"/>
    </vehicle>
    <vehicle id="34" type="car" depart="134.88">
        <route edges="B2C2 C2B2"/>
    </vehicle>
    <vehicle id="35" type="truck" depart="138.72">
        <route edges="D2E2 E2E1 E1D1 D1C1"/>
    </vehicle>
    <vehicle id="36" type="car" depart="142.59">
        <route edges="C2B2 B2A2 A2A1 A1A0"/>
    </vehicle>
    <vehicle id="37" type="truck" depart="146.61">
        <route edges="A1A0 A0B0"/>
    </vehicle>
    <vehicle id="38" type="bus" depart="150.25">
        <route edges="D0E0 E0E1"/>
    </vehicle>
    <vehicle id="39" type="truck" depart="154.35">
        <route edges="A0A1 A1B1 B1A1"/>
    </vehicle>
    <vehicle id="40" type="car" depart="158.64">
        <route edges="C0C1 C1C2 C2D2 D2C2 C2B2 B2A2"/>
    </vehicle>
    <vehicle id="41" type="truck" depart="162.50">
        <route edges="E0D0 D0C0 C0D0 D0C0 C0B0 B0B1 B1C1"/>
    </vehicle>
    <vehicle id="42" type="truck" depart="166.38">
        <route edges="B1B2 B2C2 C2D2 D2D1 D1D2 D2C2 C2C1"/>
    </vehicle>
    <vehicle id="43" type="truck" depart="170.07">
        <route edges="D0D1 D1E1 E1D1 D1C1"/>
    </vehicle>
    <vehicle id="44" type="bus" depart="173.65">
        <route edges="D0C0 C0C1 C1C0 C0B0 B0A0"/>
    </vehicle>
    <vehicle id="45" type="car" depart="177.83">
        <route edges="E0E1 E1D1 D1E1"/>
    </vehicle>
    <vehicle id="46" type="truck" depart="181.84">
        <route edges="B2A2 A2A1 A1A2"/>
    </vehicle>
    <vehicle id="47" type="truck" depart="183.89">
        <route edges="C1B1 B1B0 B0C0"/>
    </vehicle>
    <vehicle id="48" type="car" depart="185.43">
        <route edges="E0D0 D0E0 E0E1 E1E2 E2D2"/>
    </vehicle>
    <vehicle id="49" type="bus" depart="187.43">
        <route edges="A0A1 A1B1 B1C1 C1B1 B1B0"/>
    </vehicle>
    <vehicle id="50" type="bus" depart="189.57">
        <route edges="B1C1 C1D1 D1E1 E1E0"/>
    </vehicle>
    <vehicle id="51" type="truck" depart="191.19">
        <route edges="E1E2 E2D2 D2E2 E2E1 E1E2"/>
    </vehicle>
    <vehicle id="52" type="car" depart="193.07">
        <route edges="B1A1 A1B1 B1A1 A1B1 B1B0 B0B1 B1A1"/>
    </vehicle>
    <vehicle id="53" type="car" depart="195.37">
        <route edges="E0D0 D0C0 C0D0 D0C0 C0B0 B0B1 B1C1"/>
    </vehicle>
    <vehicle id="54" type="bus" depart="197.86">
        <route edges="A0B0 B0A0"/>
    </vehicle>
    <vehicle id="55" type="car" depart="200.18">
        <route edges="D0D1 D1D2 D2E2 E2E1 E1D1"/>
    </vehicle>
    <vehicle id="56" type="truck" depart="201.69">
        <route edges="D1E1 E1D1 D1D2 D2E2 E2E1"/>
    </vehicle>
    <vehicle id="57" type="car" depart="203.56">
        <route edges="B0B1 B1B2 B2C2 C2B2 B2A2"/>
    </vehicle>
    <vehicle id="58" type="bus" depart="205.43">
        <route edges="E2D2 D2C2 C2C1 C1B1 B1B0 B0C0 C0C1"/>
    </vehicle>
    <vehicle id="59" type="truck" depart="206.94">
        <route edges="E1D1 D1E1 E1E2"/>
    </vehicle>
    <vehicle id="60" type="truck" depart="208.86">
        <route edges="E1E2 E2D2 D2C2 C2B2"/>
    </vehicle>
    <vehicle id="61" type="car" depart="210.94">
        <route edges="B1C1 C1B1 B1C1 C1D1"/>
    </vehicle>
    <vehicle id="62" type="car" depart="212.51">
        <route edges="B2B1 B1A1 A1A0 A0B0 B0A0"/>
    </vehicle>
    <vehicle id="63" type="car" depart="214.86">
        <route edges="A1B1 B1A1 A1A0"/>
    </vehicle>
    <vehicle id="64" type="truck" depart="216.99">
        <route edges="D0C0 C0C1 C1C0 C0B0 B0A0"/>
    </vehicle>
    <vehicle id="65" type="bus" depart="218.67">
        <route edges="B1C1 C1C2"/>
    </vehicle>
    <vehicle id="66" type="bus" depart="220.28">
        <route edges="C0D0 D0E0 E0E1 E1E0 E0D0"/>
    </vehicle>
    <vehicle id="67" type="car" depart="221.82">
        <route edges="D1E1 E1D1 D1D2 D2E2 E2E1"/>
    </vehicle>
    <vehicle id="68" type="car" depart="223.58">
        <route edges="C2C1 C1B1 B1C1 C1C2 C2C1"/>
    </vehicle>
    <vehicle id="69" type="truck" depart="225.59">
        <route edges="D2E2 E2E1"/>
    </vehicle>
    <vehicle id="70" type="bus" depart="227.76">
        <route edges="B1B0 B0B1 B1B2 B2A2"/>
    </vehicle>
    <vehicle id="71" type="bus" depart="229.61">
        <route edges="B2A2 A2A1 A1B1 B1C1"/>
    </vehicle>
    <vehicle id="72" type="bus" depart="231.37">
        <route edges="B2A2 A2A1 A1A2"/>
    </vehicle>
    <vehicle id="73" type="truck" depart="233.73">
        <route edges="D0D1 D1E1 E1D1 D1C1"/>
    </vehicle>
    <vehicle id="74" type="truck" depart="235.31">
        <route edges="B1B2 B2C2 C2D2 D2D1 D1D2 D2C2 C2C1"/>
    </vehicle>
    <vehicle id="75" type="bus" depart="237.55">
        <route edges="E1D1 D1E1 E1E0 E0D0 D0E0 E0E1 E1E0"/>
    </vehicle>
    <vehicle id="76" type="bus" depart="239.80">
        <route edges="B1C1 C1D1 D1E1 E1E0"/>
    </vehicle>
    <vehicle id="77" type="bus" depart="241.85">
        <route edges="A2A1 A1A0 A0B0 B0C0"/>
    </vehicle>
    <vehicle id="78" type="car" depart="243.52">
        <route edges="D1D2 D2D1 D1E1"/>
    </vehicle>
    <vehicle id="79" type="truck" depart="245.91">
        <route edges="D0D1 D1E1 E1D1 D1C1"/>
    </vehicle>
    <vehicle id="80" type="bus" depart="247.46">
        <route edges="C1D1 D1D0"/>
    </vehicle>
    <vehicle id="81" type="car" depart="249.67">
        <route edges="B2B1 B1A1 A1A0 A0B0 B0A0 A0A1"/>
    </vehicle>
    <vehicle id="82" type="truck" depart="252.03">
        <route edges="C2C1 C1B1 B1C1 C1C2 C2C1"/>
    </vehicle>
    <vehicle id="83" type="car" depart="254.21">
        <route edges="E1D1 D1E1 E1E2"/>
    </vehicle>
    <vehicle id="84" type="truck" depart="256.19">
        <route edges="B1C1 C1C2"/>
    </vehicle>
    <vehicle id="85" type="car" depart="257.93">
        <route edges="C2C1 C1B1 B1C1 C1C2 C2C1"/>
    </vehicle>
    <vehicle id="86" type="truck" depart="260.26">
        <route edges="A0B0 B0C0 C0D0 D0E0 E0E1"/>
    </vehicle>
    <vehicle id="87" type="car" depart="262.07">
        <route edges="A1A0 A0B0"/>
    </vehicle>
    <vehicle id="88" type="bus" depart="263.58">
        <route edges="A0B0 B0B1"/>
    </vehicle>
    <vehicle id="89" type="truck" depart="265.30">
        <route edges="C2C1 C1B1 B1B2 B2B1 B1B0 B0A0 A0A1"/>
    </vehicle>
    <vehicle id="90" type="truck" depart="267.61">
        <route edges="A1B1 B1B2 B2A2"/>
    </vehicle>
    <vehicle id="91" type="bus" depart="270.09">
        <route edges="C0D0 D0C0 C0D0 D0D1"/>
    </vehicle>
    <vehicle id="92" type="bus" depart="272.39">
        <route edges="A1A0 A0B0 B0C0 C0B0 B0B1 B1A1"/>
    </vehicle>
    <vehicle id="93" type="truck" depart="274.41">
        <route edges="A1B1 B1A1 A1A0"/>
    </vehicle>
    <vehicle id="94" type="truck" depart="276.09">
        <route edges="C1C2 C2D2"/>
    </vehicle>
    <vehicle id="95" type="bus" depart="277.72">
        <route edges="D1D0 D0D1 D1E1 E1D1 D1D2 D2D1 D1D0"/>
    </vehicle>
    <vehicle id="96" type="car" depart="279.80">
        <route edges="A1B1 B1A1 A1A0"/>
    </vehicle>
    <vehicle id="97" type="bus" depart="281.59">
        <route edges="E1D1 D1E1 E1E0 E0D0 D0E0 E0E1 E1E0"/>
    </vehicle>
    <vehicle id="98" type="car" depart="283.25">
        <route edges="B1C1 C1B1 B1C1 C1D1"/>
    </vehicle>
    <vehicle id="99" type="car" depart="285.36">
        <route edges="E1D1 D1E1 E1E2"/>
    </vehicle>
    <vehicle id="100" type="truck" depart="287.64">
        <route edges="D0D1 D1E1 E1D1 D1D2 D2D1 D1C1"/>
    </vehicle>
    <vehicle id="101" type="truck" depart="289.25">
        <route edges="C0B0 B0A0 A0A1 A1B1 B1C1 C1C2 C2C1"/>
    </vehicle>
    <vehicle id="102" type="truck" depart="291.02">
        <route edges="B0C0 C0D0 D0E0 E0E1"/>
    </vehicle>
    <vehicle id="103" type="car" depart="293.27">
        <route edges="C0C1 C1D1 D1C1"/>
    </vehicle>
    <vehicle id="104" type="car" depart="295.25">
        <route edges="B2B1 B1A1 A1A0 A0B0 B0A0"/>
    </vehicle>
    <vehicle id="105" type="truck" depart="297.10">
        <route edges="C2C1 C1C2 C2D2 D2E2 E2E1 E1E0 E0D0"/>
    </vehicle>
    <vehicle id="106" type="truck" depart="299.17">
        <route edges="C0D0 D0E0 E0E1 E1E0 E0D0"/>
    </vehicle>
    <vehicle id="107" type="bus" depart="300.68">
        <route edges="D2D1 D1D2 D2D1 D1E1 E1E2 E2D2"/>
    </vehicle>
    <vehicle id="108" type="bus" depart="302.56">
        <route edges="E0E1 E1D1 D1E1"/>
    </vehicle>
    <vehicle id="109" type="car" depart="304.54">
        <route edges="E1E2 E2D2 D2C2 C2B2"/>
    </vehicle>
    <vehicle id="110" type="truck" depart="306.45">
        <route edges="C2D2 D2E2 E2E1"/>
    </vehicle>
    <vehicle id="111" type="truck" depart="308.41">
        <route edges="B2A2 A2A1 A1B1 B1C1"/>
    </vehicle>
    <vehicle id="112" type="truck" depart="310.40">
        <route edges="D2D1 D1D2 D2D1 D1E1 E1E2 E2D2"/>
    </vehicle>
    <vehicle id="113" type="bus" depart="312.29">
        <route edges="E1E2 E2D2 D2E2 E2E1 E1E2"/>
    </vehicle>
    <vehicle id="114" type="bus" depart="313.93">
        <route edges="D2D1 D1D2 D2E2 E2E1 E1D1 D1D0 D0E0"/>
    </vehicle>
    <vehicle id="115" type="truck" depart="316.08">
        <route edges="A0B0 B0C0 C0D0 D0E0 E0E1"/>
    </vehicle>
    <vehicle id="116" type="car" depart="318.39">
        <route edges="D2E2 E2E1 E1D1 D1C1"/>
    </vehicle>
    <vehicle id="117" type="car" depart="320.23">
        <route edges="B2A2 A2A1 A1B1 B1C1"/>
    </vehicle>
    <vehicle id="118" type="car" depart="322.31">
        <route edges="C2D2 D2C2 C2D2 D2E2 E2E1 E1E0 E0D0"/>
    </vehicle>
    <vehicle id="119" type="truck" depart="323.84">
        <route edges="B1B2 B2C2 C2D2 D2D1 D1D2 D2C2 C2C1"/>
    </vehicle>
    <vehicle id="120" type="truck" depart="325.80">
        <route edges="E0E1 E1D1 D1E1"/>
    </vehicle>
    <vehicle id="121" type="truck" depart="328.30">
        <route edges="C2D2 D2E2 E2E1"/>
    </vehicle>
    <vehicle id="122" type="bus" depart="329.97">
        <route edges="B1B0 B0B1 B1B2 B2A2"/>
    </vehicle>
    <vehicle id="123" type="car" depart="332.27">
        <route edges="C2C1 C1B1 B1C1 C1C2 C2C1"/>
    </vehicle>
    <vehicle id="124" type="bus" depart="334.58">
        <route edges="C2C1 C1B1 B1B2 B2B1 B1B0 B0A0 A0A1"/>
    </vehicle>
    <vehicle id="125" type="car" depart="336.81">
        <route edges="B1B0 B0C0 C0D0"/>
    </vehicle>
    <vehicle id="126" type="bus" depart="339.11">
        <route edges="D0D1 D1E1 E1D1 D1C1"/>
    </vehicle>
    <vehicle id="127" type="truck" depart="340.71">
        <route edges="D1E1 E1D1 D1E1 E1E0 E0D0 D0E0 E0E1"/>
    </vehicle>
    <vehicle id="128" type="bus" depart="343.12">
        <route edges="B1C1 C1D1 D1E1 E1E0"/>
    </vehicle>
    <vehicle id="129" type="truck" depart="345.41">
        <route edges="C0C1 C1C2 C2D2 D2C2 C2B2 B2A2"/>
    </vehicle>
    <vehicle id="130" type="truck" depart="347.29">
        <route edges="C1C0 C0B0 B0A0 A0A1"/>
    </vehicle>
    <vehicle id="131" type="truck" depart="348.87">
        <route edges="E1E0 E0D0 D0C0"/>
    </vehicle>
    <vehicle id="132" type="truck" depart="351.32">
        <route edges="B0C0 C0D0 D0E0 E0E1"/>
    </vehicle>
    <vehicle id="133" type="truck" depart="353.63">
        <route edges="A1B1 B1B2 B2A2"/>
    </vehicle>
    <vehicle id="134" type="bus" depart="355.74">
        <route edges="B1B2 B2C2 C2C1 C1C2 C2B2 B2B1 B1B2"/>
    </vehicle>
    <vehicle id="135" type="truck" depart="357.45">
        <route edges="E0D0 D0C0 C0D0 D0C0 C0B0 B0B1 B1C1"/>
    </vehicle>
    <vehicle id="136" type="bus" depart="359.23">
        <route edges="B0C0 C0C1 C1C2 C2C1"/>
    </vehicle>
    <vehicle id="137" type="car" depart="361.19">
        <route edges="B1B2 B2C2 C2C1 C1C2 C2B2 B2B1 B1B2"/>
    </vehicle>
    <vehicle id="138" type="truck" depart="363.22">
        <route edges="A2A1 A1B1 B1A1 A1B1 B1C1 C1D1"/>
    </vehicle>
    <vehicle id="139" type="car" depart="364.06">
        <route edges="A2B2 B2C2"/>
    </vehicle>
    <vehicle id="140" type="truck" depart="365.01">
        <route edges="A0B0 B0B1"/>
    </vehicle>
    <vehicle id="141" type="car" depart="365.52">
        <route edges="B0A0 A0A1 A1B1 B1C1"/>
    </vehicle>
    <vehicle id="142" type="truck" depart="366.77">
        <route edges="A1B1 B1B2 B2A2"/>
    </vehicle>
    <vehicle id="143" type="car" depart="367.76">
        <route edges="A2A1 A1B1"/>
    </vehicle>
    <vehicle id="144" type="bus" depart="368.46">
        <route edges="A0B0 B0B1"/>
    </vehicle>
    <vehicle id="145" type="bus" depart="369.65">
        <route edges="E1E2 E2D2 D2E2 E2E1 E1E2"/>
    </vehicle>
    <vehicle id="146" type="car" depart="370.48">
        <route edges="D1C1 C1C0"/>
    </vehicle>
    <vehicle id="147" type="car" depart="371.90">
        <route edges="D1E1 E1D1 D1D2 D2E2 E2E1"/>
    </vehicle>
    <vehicle id="148" type="bus" depart="373.03">
        <route edges="B0A0 A0A1 A1A0 A0B0 B0B1"/>
    </vehicle>
    <vehicle id="149" type="bus" depart="374.05">
        <route edges="C1D1 D1D0"/>
    </vehicle>
    <vehicle id="150" type="car" depart="375.19">
        <route edges="C2C1 C1B1 B1B2 B2B1 B1B0 B0A0 A0A1"/>
    </vehicle>
    <vehicle id="151" type="car" depart="376.31">
        <route edges="D0C0 C0B0 B0C0"/>
    </vehicle>
    <vehicle id="152" type="car" depart="377.15">
        <route edges="D0E0 E0E1 E1E2 E2D2 D2C2 C2C1 C1C2"/>
    </vehicle>
    <vehicle id="153" type="truck" depart="378.32">
        <route edges="A0B0 B0C0 C0D0 D0E0 E0E1"/>
    </vehicle>
    <vehicle id="154" type="bus" depart="379.31">
        <route edges="A1A2 A2B2 B2C2 C2C1"/>
    </vehicle>
    <vehicle id="155" type="bus" depart="380.54">
        <route edges="B0B1 B1B2 B2C2 C2D2 D2E2 E2E1"/>
    </vehicle>
    <vehicle id="156" type="car" depart="381.44">
        <route edges="B1B0 B0B1 B1B2 B2A2"/>
    </vehicle>
    <vehicle id="157" type="truck" depart="382.45">
        <route edges="C0C1 C1D1 D1C1"/>
    </vehicle>
    <vehicle id="158" type="car" depart="383.60">
        <route edges="D1E1 E1D1 D1D2 D2E2 E2E1"/>
    </vehicle>
    <vehicle id="159" type="car" depart="384.68">
        <route edges="E2D2 D2C2 C2C1 C1B1 B1B0 B0C0 C0C1"/>
    </vehicle>
    <vehicle id="160" type="truck" depart="385.72">
        <route edges="C2C1 C1B1 B1B2 B2B1 B1B0 B0A0 A0A1"/>
    </vehicle>
    <vehicle id="161" type="car" depart="386.52">
        <route edges="C0C1 C1D1 D1C1"/>
    </vehicle>
    <vehicle id="162" type="car" depart="387.06">
        <route edges="B2B1 B1C1"/>
    </vehicle>
    <vehicle id="163" type="car" depart="388.23">
        <route edges="D0E0 E0E1"/>
    </vehicle>
    <vehicle id="164" type="bus" depart="389.42">
        <route edges="C0B0 B0A0 A0A1 A1B1 B1C1 C1C2 C2C1"/>
    </vehicle>
    <vehicle id="165" type="car" depart="390.82">
        <route edges="D2D1 D1D2 D2D1 D1E1 E1E2 E2D2"/>
    </vehicle>
    <vehicle id="166" type="bus" depart="392.25">
        <route edges="E0D0 D0C0 C0D0 D0C0 C0B0 B0B1 B1C1"/>
    </vehicle>
    <vehicle id="167" type="bus" depart="393.69">
        <route edges="C1D1 D1D0 D0D1 D1E1 E1E0 E0D0"/>
    </vehicle>
    <vehicle id="168" type="truck" depart="395.08">
        <route edges="C2B2 B2C2"/>
    </vehicle>
    <vehicle id="169" type="bus" depart="396.52">
        <route edges="B0C0 C0D0 D0E0 E0E1"/>
    </vehicle>
    <vehicle id="170" type="truck" depart="397.98">
        <route edges="C2D2 D2C2 C2D2 D2E2 E2E1 E1E0 E0D0"/>
    </vehicle>
    <vehicle id="171" type="bus" depart="398.57">
        <route edges="D0C0 C0C1 C1C0 C0B0 B0A0"/>
    </vehicle>
    <vehicle id="172" type="bus" depart="399.26">
        <route edges="D2E2 E2E1 E1D1 D1D2"/>
    </vehicle>
    <vehicle id="173" type="bus" depart="399.78">
        <route edges="C0C1 C1C2 C2D2 D2C2 C2B2 B2A2"/>
    </vehicle>
    <vehicle id="174" type="bus" depart="400.54">
        <route edges="E0D0 D0E0 E0E1 E1E2"/>
    </vehicle>
    <vehicle id="175" type="car" depart="401.19">
        <route edges="D1E1 E1D1 D1E1 E1E0 E0D0 D0E0 E0E1"/>
    </vehicle>
    <vehicle id="176" type="truck" depart="401.78">
        <route edges="A0A1 A1B1 B1A1"/>
    </vehicle>
    <vehicle id="177" type="bus" depart="402.80">
        <route edges="D1D2 D2C2 C2D2 D2D1 D1D0 D0D1 D1C1"/>
    </vehicle>
    <vehicle id="178" type="bus" depart="404.10">
        <route edges="C0C1 C1C2 C2D2 D2C2 C2B2 B2A2"/>
    </vehicle>
    <vehicle id="179" type="truck" depart="404.93">
        <route edges="C1C2 C2D2"/>
    </vehicle>
    <vehicle id="180" type="truck" depart="405.93">
        <route edges="D2E2 E2E1 E1D1 D1C1"/>
    </vehicle>
    <vehicle id="181" type="car" depart="406.66">
        <route edges="B1B0 B0C0 C0D0"/>
    </vehicle>
    <vehicle id="182" type="car" depart="407.38">
        <route edges="C0C1 C1D1 D1C1"/>
    </vehicle>
    <vehicle id="183" type="truck" depart="408.65">
        <route edges="A2B2 B2B1 B1B0 B0B1"/>
    </vehicle>
    <vehicle id="184" type="car" depart="409.45">
        <route edges="C2B2 B2C2"/>
    </vehicle>
    <vehicle id="185" type="truck" depart="410.66">
        <route edges="C1B1 B1B0 B0C0"/>
    </vehicle>
    <vehicle id="186" type="truck" depart="411.67">
        <route edges="A1A0 A0B0"/>
    </vehicle>
    <vehicle id="187" type="car" depart="413.07">
        <route edges="C1B1 B1A1 A1A0 A0B0 B0B1 B1B2"/>
    </vehicle>
    <vehicle id="188" type="bus" depart="413.67">
        <route edges="D0C0 C0B0 B0C0"/>
    </vehicle>
    <vehicle id="189" type="truck" depart="414.71">
        <route edges="C0D0 D0E0 E0E1 E1E0 E0D0"/>
    </vehicle>
    <vehicle id="190" type="car" depart="415.44">
        <route edges="B0A0 A0A1 A1A0 A0B0 B0B1"/>
    </vehicle>
    <vehicle id="191" type="car" depart="416.89">
        <route edges="A0B0 B0C0 C0D0 D0E0 E0E1"/>
    </vehicle>
    <vehicle id="192" type="car" depart="417.66">
        <route edges="E1E2 E2D2 D2C2 C2B2"/>
    </vehicle>
    <vehicle id="193" type="bus" depart="418.88">
        <route edges="A1A0 A0B0 B0C0 C0B0 B0B1 B1A1"/>
    </vehicle>
    <vehicle id="194" type="bus" depart="419.78">
        <route edges="C2B2 B2C2"/>
    </vehicle>
    <vehicle id="195" type="car" depart="420.31">
        <route edges="B2B1 B1A1 A1A0 A0B0 B0A0"/>
    </vehicle>
    <vehicle id="196" type="car" depart="421.28">
        <route edges="A2A1 A1B1 B1A1 A1B1 B1C1 C1D1"/>
    </vehicle>
    <vehicle id="197" type="bus" depart="422.50">
        <route edges="A2A1 A1B1"/>
    </vehicle>
    <vehicle id="198" type="bus" depart="423.12">
        <route edges="D1C1 C1C0"/>
    </vehicle>
    <vehicle id="199" type="bus" depart="423.78">
        <route edges="D0E0 E0E1 E1E2 E2D2 D2C2 C2C1 C1C2"/>
    </vehicle>
    <vehicle id="200" type="truck" depart="424.28">
        <route edges="A1B1 B1B2 B2A2"/>
    </vehicle>
    <vehicle id="201" type="bus" depart="425.57">
        <route edges="D2E2 E2E1"/>
    </vehicle>
    <vehicle id="202" type="bus" depart="426.16">
        <route edges="C2B2 B2A2 A2A1 A1A0"/>
    </vehicle>
    <vehicle id="203" type="car" depart="427.52">
        <route edges="A1B1 B1B2 B2A2"/>
    </vehicle>
    <vehicle id="204" type="bus" depart="428.27">
        <route edges="B1C1 C1D1 D1E1 E1E0"/>
    </vehicle>
    <vehicle id="205" type="bus" depart="429.76">
        <route edges="B2B1 B1A1 A1A0 A0B0 B0A0 A0A1"/>
    </vehicle>
    <vehicle id="206" type="car" depart="431.25">
        <route edges="A0B0 B0B1"/>
    </vehicle>
    <vehicle id="207" type="car" depart="432.24">
        <route edges="C0C1 C1D1 D1C1"/>
    </vehicle>
    <vehicle id="208" type="truck" depart="433.22">
        <route edges="D1E1 E1D1 D1E1 E1E0 E0D0 D0E0 E0E1"/>
    </vehicle>
    <vehicle id="209" type="truck" depart="434.30">
        <route edges="D2E2 E2E1 E1D1 D1D2"/>
    </vehicle>
    <vehicle id="210" type="bus" depart="435.03">
        <route edges="A0B0 B0C0 C0D0 D0E0 E0E1"/>
    </vehicle>
    <vehicle id="211" type="car" depart="436.25">
        <route edges="E1E2 E2D2 D2E2 E2E1 E1E2"/>
    </vehicle>
    <vehicle id="212" type="car" depart="436.96">
        <route edges="D2E2 E2E1 E1D1 D1C1"/>
    </vehicle>
    <vehicle id="213" type="bus" depart="438.33">
        <route edges="C1C2 C2D2"/>
    </vehicle>
    <vehicle id="214" type="truck" depart="438.92">
        <route edges="A1A2 A2B2 B2C2"/>
    </vehicle>
    <vehicle id="215" type="truck" depart="440.01">
        <route edges="E1E2 E2D2 D2E2 E2E1 E1E2"/>
    </vehicle>
    <vehicle id="216" type="car" depart="441.27">
        <route edges="C1D1 D1E1"/>
    </vehicle>
    <vehicle id="217" type="truck" depart="442.03">
        <route edges="C0D0 D0E0 E0E1 E1E0 E0D0"/>
    </vehicle>
    <vehicle id="218" type="car" depart="443.24">
        <route edges="B1C1 C1B1 B1C1 C1D1"/>
    </vehicle>
    <vehicle id="219" type="car" depart="443.98">
        <route edges="D1D0 D0D1 D1E1 E1D1 D1D2 D2D1 D1D0"/>
    </vehicle>
    <vehicle id="220" type="truck" depart="444.76">
        <route edges="A0A1 A1B1 B1C1 C1B1 B1B0"/>
    </vehicle>
    <vehicle id="221" type="car" depart="445.89">
        <route edges="E1E0 E0D0 D0C0"/>
    </vehicle>
    <vehicle id="222" type="bus" depart="446.79">
        <route edges="C0C1 C1C2 C2D2 D2C2 C2B2 B2A2"/>
    </vehicle>
    <vehicle id="223" type="bus" depart="447.75">
        <route edges="A1A2 A2B2 B2C2 C2C1"/>
    </vehicle>
    <vehicle id="224" type="bus" depart="448.98">
        <route edges="A0B0 B0A0"/>
    </vehicle>
    <vehicle id="225" type="truck" depart="449.69">
        <route edges="A0B0 B0C0 C0D0 D0E0 E0E1"/>
    </vehicle>
    <vehicle id="226" type="car" depart="450.30">
        <route edges="A1A0 A0B0 B0C0 C0B0 B0B1"/>
    </vehicle>
    <vehicle id="227" type="car" depart="451.34">
        <route edges="D1C1 C1C2 C2C1"/>
    </vehicle>
    <vehicle id="228" type="truck" depart="452.48">
        <route edges="C1B1 B1B0 B0C0"/>
    </vehicle>
    <vehicle id="229" type="bus" depart="453.86">
        <route edges="A1B1 B1B2"/>
    </vehicle>
    <vehicle id="230" type="truck" depart="455.35">
        <route edges="D2C2 C2B2 B2B1 B1C1"/>
    </vehicle>
    <vehicle id="231" type="bus" depart="455.97">
        <route edges="B1C1 C1B1 B1C1 C1D1"/>
    </vehicle>
    <vehicle id="232" type="car" depart="457.09">
        <route edges="A1A0 A0B0"/>
    </vehicle>
    <vehicle id="233" type="bus" depart="458.14">
        <route edges="C0C1 C1D1 D1C1"/>
    </vehicle>
    <vehicle id="234" type="car" depart="459.17">
        <route edges="D1E1 E1E0 E0D0 D0C0 C0C1 C1C2 C2C1"/>
    </vehicle>
    <vehicle id="235" type="truck" depart="460.51">
        <route edges="D0E0 E0E1 E1E2 E2D2 D2C2 C2C1 C1C2"/>
    </vehicle>
    <vehicle id="236" type="bus" depart="461.86">
        <route edges="A1B1 B1A1 A1A0"/>
    </vehicle>
    <vehicle id="237" type="truck" depart="463.35">
        <route edges="D1D2 D2C2 C2D2 D2D1 D1D0 D0D1 D1C1"/>
    </vehicle>
    <vehicle id="238" type="truck" depart="464.02">
        <route edges="C1C0 C0B0"/>
    </vehicle>
    <vehicle id="239" type="bus" depart="464.53">
        <route edges="E1D1 D1E1 E1E2"/>
    </vehicle>
    <vehicle id="240" type="truck" depart="465.27">
        <route edges="C1C2 C2D2"/>
    </vehicle>
    <vehicle id="241" type="car" depart="466.24">
        <route edges="B0A0 A0A1 A1B1 B1C1"/>
    </vehicle>
    <vehicle id="242" type="car" depart="467.52">
        <route edges="A2A1 A1B1"/>
    </vehicle>
    <vehicle id="243" type="bus" depart="468.32">
        <route edges="D0D1 D1D2 D2E2 E2E1 E1D1"/>
    </vehicle>
    <vehicle id="244" type="bus" depart="469.15">
        <route edges="E0D0 D0C0 C0D0 D0C0 C0B0 B0B1 B1C1"/>
    </vehicle>
    <vehicle id="245" type="truck" depart="470.34">
        <route edges="B1B0 B0C0 C0D0"/>
    </vehicle>
    <vehicle id="246" type="truck" depart="471.72">
        <route edges="A2A1 A1B1 B1A1 A1B1 B1C1 C1D1"/>
    </vehicle>
    <vehicle id="247" type="truck" depart="472.70">
        <route edges="C1C0 C0B0 B0A0 A0A1"/>
    </vehicle>
    <vehicle id="248" type="truck" depart="474.12">
        <route edges="A0A1 A1B1 B1A1"/>
    </vehicle>
    <vehicle id="249" type="truck" depart="475.05">
        <route edges="A1A2 A2B2 B2C2"/>
    </vehicle>
    <vehicle id="250" type="truck" depart="476.22">
        <route edges="D1C1 C1C0"/>
    </vehicle>
    <vehicle id="251" type="truck" depart="477.59">
        <route edges="B0A0 A0A1 A1B1 B1C1"/>
    </vehicle>
    <vehicle id="252" type="bus" depart="478.98">
        <route edges="A0A1 A1B1 B1C1 C1B1 B1B0"/>
    </vehicle>
    <vehicle id="253" type="truck" depart="479.76">
        <route edges="B2A2 A2A1 A1B1 B1C1"/>
    </vehicle>
    <vehicle id="254" type="bus" depart="480.86">
        <route edges="C0B0 B0A0 A0A1"/>
    </vehicle>
    <vehicle id="255" type="car" depart="481.78">
        <route edges="D1E1 E1D1 D1E1 E1E0 E0D0 D0E0 E0E1"/>
    </vehicle>
    <vehicle id="256" type="car" depart="482.45">
        <route edges="B2B1 B1A1 A1A0 A0B0 B0A0"/>
    </vehicle>
    <vehicle id="257" type="car" depart="483.81">
        <route edges="D2C2 C2D2 D2E2 E2E1 E1E0"/>
    </vehicle>
    <vehicle id="258" type="car" depart="484.64">
        <route edges="C2C1 C1B1 B1C1 C1C2 C2C1"/>
    </vehicle>
    <vehicle id="259" type="bus" depart="485.56">
        <route edges="A1A2 A2B2 B2C2"/>
    </vehicle>
    <vehicle id="260" type="bus" depart="486.24">
        <route edges="C2C1 C1C2 C2D2 D2E2 E2E1 E1E0 E0D0"/>
    </vehicle>
    <vehicle id="261" type="car" depart="486.79">
        <route edges="A1A0 A0B0 B0C0 C0B0 B0B1"/>
    </vehicle>
    <vehicle id="262" type="car" depart="488.17">
        <route edges="E2D2 D2C2 C2C1 C1B1 B1B0 B0C0 C0C1"/>
    </vehicle>
    <vehicle id="263" type="bus" depart="488.70">
        <route edges="B1C1 C1D1 D1E1 E1E0"/>
    </vehicle>
    <vehicle id="264" type="car" depart="489.50">
        <route edges="B2B1 B1A1 A1A0 A0B0 B0A0"/>
    </vehicle>
    <vehicle id="265" type="car" depart="490.64">