<?xml version="1.0" ?>
<routes>
    <vType id="car" accel="2.6" decel="4.5" sigma="0.5" length="5" maxSpeed="70"/>
    <vType id="bus" accel="1.2" decel="4.0" sigma="0.5" length="12" maxSpeed="50"/>
    <vType id="truck" accel="1.0" decel="4.0" sigma="0.5" length="8" maxSpeed="60"/>
    <vehicle id="0" type="bus" depart="0.00">
        <route edges="B0B1 B1C1 C1D1 D1C1 C1B1"/>
    </vehicle>
    <vehicle id="1" type="car" depart="3.57">
        <route edges="B2B1 B1B2 B2C2 C2D2 D2E2 E2E1"/>
    </vehicle>
    <vehicle id="2" type="car" depart="7.78">
        <route edges="E2D2 D2C2"/>
    </vehicle>
    <vehicle id="3" type="car" depart="11.46">
        <route edges="C2C1 C1C0"/>
    </vehicle>
    <vehicle id="4" type="car" depart="15.68">
        <route edges="B2C2 C2D2 D2C2"/>
    </vehicle>
    <vehicle id="5" type="truck" depart="19.97">
        <route edges="B1A1 A1A2 A2B2 B2B1 B1B0"/>
    </vehicle>
    <vehicle id="6" type="car" depart="23.61">
        <route edges="C1D1 D1D0"/>
    </vehicle>
    <vehicle id="7" type="bus" depart="27.41">
        <route edges="C0D0 D0E0 E0E1"/>
    </vehicle>
    <vehicle id="8" type="bus" depart="31.27">
        <route edges="C0D0 D0E0 E0E1"/>
    </vehicle>
    <vehicle id="9" type="car" depart="35.02">
        <route edges="C0D0 D0D1"/>
    </vehicle>
    <vehicle id="10" type="truck" depart="38.92">
        <route edges="C0C1 C1C2 C2D2 D2E2 E2E1"/>
    </vehicle>
    <vehicle id="11" type="truck" depart="43.32">
        <route edges="E2E1 E1E2 E2D2"/>
    </vehicle>
    <vehicle id="12" type="bus" depart="47.03">
        <route edges="C2C1 C1B1"/>
    </vehicle>
    <vehicle id="13" type="truck" depart="50.62">
        <route edges="B0B1 B1B2 B2B1 B1A1 A1A2 A2B2 B2B1"/>
    </vehicle>
    <vehicle id="14" type="bus" depart="54.42">
        <route edges="E0E1 E1E0 E0D0 D0E0"/>
    </vehicle>
    <vehicle id="15" type="truck" depart="58.81">
        <route edges="C1D1 D1C1"/>
    </vehicle>
    <vehicle id="16" type="truck" depart="63.13">
        <route edges="A1B1 B1B0 B0C0 C0D0"/>
    </vehicle>
    <vehicle id="17" type="car" depart="66.93">
        <route edges="C2C1 C1B1"/>
    </vehicle>
    <vehicle id="18" type="car" depart="70.49">
        <route edges="A0B0 B0C0 C0D0 D0C0 C0B0"/>
    </vehicle>
    <vehicle id="19" type="car" depart="74.46">
        <route edges="D2D1 D1D0 D0E0 E0E1 E1D1 D1E1"/>
    </vehicle>
    <vehicle id="20" type="truck" depart="78.66">
        <route edges="E0D0 D0D1 D1D2 D2C2"/>
    </vehicle>
    <vehicle id="21" type="car" depart="82.38">
        <route edges="A1B1 B1A1 A1A2"/>
    </vehicle>
    <vehicle id="22" type="bus" depart="86.70">
        <route edges="B1B0 B0B1"/>
    </vehicle>
    <vehicle id="23" type="bus" depart="90.70">
        <route edges="E0D0 D0C0 C0D0"/>
    </vehicle>
    <vehicle id="24" type="bus" depart="94.25">
        <route edges="D0E0 E0E1 E1D1"/>
    </vehicle>
    <vehicle id="25" type="bus" depart="98.50">
        <route edges="D1D0 D0C0"/>
    </vehicle>
    <vehicle id="26" type="car" depart="102.76">
        <route edges="A0A1 A1A2 A2B2 B2B1 B1B2 B2B1 B1A1"/>
    </vehicle>
    <vehicle id="27" type="car" depart="106.84">
        <route edges="D2D1 D1D0 D0E0 E0E1 E1D1 D1E1"/>
    </vehicle>
    <vehicle id="28" type="truck" depart="110.60">
        <route edges="D1C1 C1D1 D1D2 D2D1 D1D0 D0C0"/>
    </vehicle>
    <vehicle id="29" type="car" depart="114.83">
        <route edges="B2A2 A2A1"/>
    </vehicle>
    <vehicle id="30" type="bus" depart="118.45">
        <route edges="A1A0 A0B0 B0C0 C0B0"/>
    </vehicle>
    <vehicle id="31" type="car" depart="122.85">
        <route edges="D1C1 C1D1 D1D2 D2D1 D1D0 D0C0"/>
    </vehicle>
    <vehicle id="32" type="truck" depart="126.37">
        <route edges="B1B0 B0B1 B1B2"/>
    </vehicle>
    <vehicle id="33" type="car" depart="130.55">
        <route edges="E1E0 E0D0 D0C0 C0C1"/>
    </vehicle>
    <vehicle id="34" type="car" depart="134.82">
        <route edges="D2E2 E2E1 E1E0 E0D0"/>
    </vehicle>
    <vehicle id="35" type="car" depart="139.25">
        <route edges="B1C1 C1B1 B1B0 B0B1 B1B0"/>
    </vehicle>
    <vehicle id="36" type="bus" depart="143.40">
        <route edges="B0B1 B1B2 B2B1 B1A1 A1A2 A2B2 B2B1"/>
    </vehicle>
    <vehicle id="37" type="car" depart="147.27">
        <route edges="B2A2 A2A1"/>
    </vehicle>
    <vehicle id="38" type="car" depart="151.58">
        <route edges="B2B1 B1B2 B2C2 C2D2 D2E2 E2E1"/>
    </vehicle>
    <vehicle id="39" type="truck" depart="155.23">
        <route edges="B1B2 B2A2"/>
    </vehicle>
    <vehicle id="40" type="truck" depart="158.90">
        <route edges="D2E2 E2E1 E1E0"/>
    </vehicle>
    <vehicle id="41" type="truck" depart="163.29">
        <route edges="A1B1 B1C1 C1D1 D1E1 E1E0 E0D0 D0D1"/>
    </vehicle>
    <vehicle id="42" type="bus" depart="167.23">
        <route edges="C0D0 D0D1"/>
    </vehicle>
    <vehicle id="43" type="truck" depart="171.04">
        <route edges="D1E1 E1E0 E0D0"/>
    </vehicle>
    <vehicle id="44" type="truck" depart="174.90">
        <route edges="D2D1 D1C1"/>
    </vehicle>
    <vehicle id="45" type="bus" depart="179.35">
        <route edges="D0D1 D1C1 C1C2 C2D2 D2C2 C2C1"/>
    </vehicle>
    <vehicle id="46" type="truck" depart="183.10">
        <route edges="C1D1 D1C1"/>
    </vehicle>
    <vehicle id="47" type="truck" depart="185.23">
        <route edges="E1E0 E0D0 D0C0 C0C1"/>
    </vehicle>
    <vehicle id="48" type="car" depart="187.68">
        <route edges="D0E0 E0E1 E1D1 D1D2 D2D1 D1E1"/>
    </vehicle>
    <vehicle id="49" type="truck" depart="189.62">
        <route edges="A2B2 B2B1"/>
    </vehicle>
    <vehicle id="50" type="bus" depart="191.52">
        <route edges="C1C2 C2B2 B2C2 C2B2 B2A2 A2A1 A1B1"/>
    </vehicle>
    <vehicle id="51" type="car" depart="193.34">
        <route edges="D0D1 D1C1 C1C2 C2D2 D2C2 C2C1"/>
    </vehicle>
    <vehicle id="52" type="truck" depart="195.16">
        <route edges="B1B0 B0B1 B1B2"/>
    </vehicle>
    <vehicle id="53" type="truck" depart="197.00">
        <route edges="B2B1 B1C1 C1B1 B1C1 C1C0 C0B0"/>
    </vehicle>
    <vehicle id="54" type="truck" depart="198.68">
        <route edges="D2D1 D1D0 D0C0 C0B0 B0A0 A0A1"/>
    </vehicle>
    <vehicle id="55" type="truck" depart="200.67">
        <route edges="D2C2 C2C1 C1D1 D1E1 E1D1 D1C1"/>
    </vehicle>
    <vehicle id="56" type="car" depart="202.94">
        <route edges="D2C2 C2B2 B2A2"/>
    </vehicle>
    <vehicle id="57" type="car" depart="205.34">
        <route edges="A1B1 B1C1 C1D1 D1E1 E1E0 E0D0 D0D1"/>
    </vehicle>
    <vehicle id="58" type="bus" depart="207.60">
        <route edges="C2C1 C1B1"/>
    </vehicle>
    <vehicle id="59" type="car" depart="209.30">
        <route edges="C0B0 B0C0 C0D0 D0D1 D1D2 D2E2 E2E1"/>
    </vehicle>
    <vehicle id="60" type="bus" depart="211.55">
        <route edges="C1C0 C0C1"/>
    </vehicle>
    <vehicle id="61" type="car" depart="213.83">
        <route edges="A0A1 A1A2 A2B2 B2B1 B1B2 B2B1 B1A1"/>
    </vehicle>
    <vehicle id="62" type="car" depart="215.52">
        <route edges="D1D0 D0D1 D1C1 C1D1 D1E1 E1E2"/>
    </vehicle>
    <vehicle id="63" type="car" depart="218.01">
        <route edges="C2D2 D2E2"/>
    </vehicle>
    <vehicle id="64" type="truck" depart="220.13">
        <route edges="E0E1 E1D1 D1C1 C1D1 D1E1"/>
    </vehicle>
    <vehicle id="65" type="truck" depart="221.64">
        <route edges="E1E0 E0D0 D0C0 C0C1"/>
    </vehicle>
    <vehicle id="66" type="bus" depart="224.04">
        <route edges="E0D0 D0C0 C0D0"/>
    </vehicle>
    <vehicle id="67" type="truck" depart="225.83">
        <route edges="A2A1 A1A2 A2B2 B2C2 C2B2 B2A2"/>
    </vehicle>
    <vehicle id="68" type="car" depart="227.92">
        <route edges="A0B0 B0C0 C0D0 D0C0 C0B0"/>
    </vehicle>
    <vehicle id="69" type="car" depart="229.89">
        <route edges="A0B0 B0B1 B1A1"/>
    </vehicle>
    <vehicle id="70" type="truck" depart="231.43">
        <route edges="A2A1 A1A0 A0B0"/>
    </vehicle>
    <vehicle id="71" type="bus" depart="233.86">
        <route edges="E1E2 E2D2 D2C2"/>
    </vehicle>
    <vehicle id="72" type="truck" depart="235.98">
        <route edges="B2B1 B1B2 B2C2 C2D2 D2E2 E2E1"/>
    </vehicle>
    <vehicle id="73" type="bus" depart="238.28">
        <route edges="E0E1 E1D1 D1C1 C1D1 D1E1"/>
    </vehicle>
    <vehicle id="74" type="bus" depart="240.07">
        <route edges="C0C1 C1D1 D1E1 E1E0 E0D0 D0D1 D1D2"/>
    </vehicle>
    <vehicle id="75" type="bus" depart="242.54">
        <route edges="C0D0 D0D1"/>
    </vehicle>
    <vehicle id="76" type="bus" depart="244.20">
        <route edges="C1C2 C2D2 D2E2 E2E1 E1E0 E0D0 D0C0"/>
    </vehicle>
    <vehicle id="77" type="truck" depart="246.55">
        <route edges="A2B2 B2B1 B1B0"/>
    </vehicle>
    <vehicle id="78" type="bus" depart="248.70">
        <route edges="C1C2 C2D2"/>
    </vehicle>
    <vehicle id="79" type="truck" depart="250.33">
        <route edges="C1D1 D1D0"/>
    </vehicle>
    <vehicle id="80" type="bus" depart="252.09">
        <route edges="D1D0 D0C0"/>
    </vehicle>
    <vehicle id="81" type="car" depart="254.54">
        <route edges="B0B1 B1B2 B2C2 C2C1 C1C2"/>
    </vehicle>
    <vehicle id="82" type="bus" depart="256.17">
        <route edges="E1E2 E2D2"/>
    </vehicle>
    <vehicle id="83" type="bus" depart="258.62">
        <route edges="A2A1 A1A0 A0B0 B0C0 C0D0 D0C0 C0D0"/>
    </vehicle>
    <vehicle id="84" type="truck" depart="260.83">
        <route edges="A0B0 B0C0 C0D0 D0E0"/>
    </vehicle>
    <vehicle id="85" type="truck" depart="263.03">
        <route edges="D1D0 D0D1 D1C1 C1D1 D1E1 E1E2"/>
    </vehicle>
    <vehicle id="86" type="truck" depart="264.78">
        <route edges="B0C0 C0D0 D0E0 E0E1"/>
    </vehicle>
    <vehicle id="87" type="car" depart="266.59">
        <route edges="C1B1 B1A1 A1A0"/>
    </vehicle>
    <vehicle id="88" type="car" depart="268.22">
        <route edges="A0B0 B0C0 C0D0 D0E0"/>
    </vehicle>
    <vehicle id="89" type="truck" depart="270.04">
        <route edges="D2C2 C2B2 B2A2"/>
    </vehicle>
    <vehicle id="90" type="bus" depart="272.46">
        <route edges="C2C1 C1B1 B1C1 C1C0 C0C1"/>
    </vehicle>
    <vehicle id="91" type="bus" depart="274.44">
        <route edges="C1D1 D1D0"/>
    </vehicle>
    <vehicle id="92" type="truck" depart="276.06">
        <route edges="B0C0 C0D0 D0E0 E0E1"/>
    </vehicle>
    <vehicle id="93" type="car" depart="278.23">
        <route edges="E0D0 D0D1 D1D2 D2C2"/>
    </vehicle>
    <vehicle id="94" type="bus" depart="280.53">
        <route edges="D2E2 E2E1 E1E0 E0D0"/>
    </vehicle>
    <vehicle id="95" type="car" depart="282.84">
        <route edges="A2A1 A1A0 A0B0"/>
    </vehicle>
    <vehicle id="96" type="car" depart="285.09">
        <route edges="B1B0 B0B1 B1B2"/>
    </vehicle>
    <vehicle id="97" type="bus" depart="287.51">
        <route edges="B1B0 B0B1 B1B2"/>
    </vehicle>
    <vehicle id="98" type="car" depart="289.77">
        <route edges="D2D1 D1C1"/>
    </vehicle>
    <vehicle id="99" type="truck" depart="291.85">
        <route edges="B1B0 B0B1 B1B2"/>
    </vehicle>
    <vehicle id="100" type="truck" depart="293.35">
        <route edges="B2B1 B1B0"/>
    </vehicle>
    <vehicle id="101" type="car" depart="295.74">
        <route edges="A2B2 B2B1"/>
    </vehicle>
    <vehicle id="102" type="truck" depart="297.80">
        <route edges="E2D2 D2C2"/>
    </vehicle>
    <vehicle id="103" type="bus" depart="300.08">
        <route edges="D1E1 E1E0 E0D0 D0E0 E0E1 E1D1 D1E1"/>
    </vehicle>
    <vehicle id="104" type="bus" depart="301.89">
        <route edges="E2D2 D2C2"/>
    </vehicle>
    <vehicle id="105" type="car" depart="303.58">
        <route edges="A1A2 A2B2 B2A2 A2A1 A1A0"/>
    </vehicle>
    <vehicle id="106" type="truck" depart="305.11">
        <route edges="C0D0 D0D1"/>
    </vehicle>
    <vehicle id="107" type="truck" depart="307.10">
        <route edges="A1B1 B1C1 C1D1 D1E1 E1E0 E0D0 D0D1"/>
    </vehicle>
    <vehicle id="108" type="car" depart="309.58">
        <route edges="A2A1 A1A0 A0B0"/>
    </vehicle>
    <vehicle id="109" type="car" depart="311.59">
        <route edges="A0A1 A1B1 B1B0 B0A0 A0A1 A1A2"/>
    </vehicle>
    <vehicle id="110" type="bus" depart="313.21">
        <route edges="E0E1 E1D1 D1C1 C1D1 D1E1"/>
    </vehicle>
    <vehicle id="111" type="car" depart="314.89">
        <route edges="C0C1 C1C0 C0B0 B0A0"/>
    </vehicle>
    <vehicle id="112" type="car" depart="317.29">
        <route edges="C0B0 B0B1 B1B2 B2A2 A2A1 A1B1"/>
    </vehicle>
    <vehicle id="113" type="bus" depart="319.24">
        <route edges="C0B0 B0B1 B1B2 B2A2 A2A1 A1B1"/>
    </vehicle>
    <vehicle id="114" type="truck" depart="321.31">
        <route edges="A2A1 A1A2 A2B2 B2C2 C2B2 B2A2"/>
    </vehicle>
    <vehicle id="115" type="bus" depart="323.44">
        <route edges="C2D2 D2C2 C2B2 B2A2"/>
    </vehicle>
    <vehicle id="116" type="truck" depart="325.67">
        <route edges="D1D0 D0D1 D1C1 C1D1 D1E1 E1E2"/>
    </vehicle>
    <vehicle id="117" type="bus" depart="327.63">
        <route edges="C0C1 C1C2 C2D2 D2E2 E2E1"/>
    </vehicle>
    <vehicle id="118" type="truck" depart="329.28">
        <route edges="B0B1 B1B2 B2C2 C2C1 C1C2"/>
    </vehicle>
    <vehicle id="119" type="car" depart="331.15">
        <route edges="E1E2 E2D2"/>
    </vehicle>
    <vehicle id="120" type="bus" depart="333.47">
        <route edges="D1D0 D0C0"/>
    </vehicle>
    <vehicle id="121" type="truck" depart="335.85">
        <route edges="E1E2 E2D2"/>
    </vehicle>
    <vehicle id="122" type="bus" depart="338.24">
        <route edges="D1D2 D2D1 D1C1 C1D1"/>
    </vehicle>
    <vehicle id="123" type="truck" depart="339.95">
        <route edges="A0B0 B0C0 C0D0 D0E0"/>
    </vehicle>
    <vehicle id="124" type="truck" depart="342.15">
        <route edges="B1B0 B0B1"/>
    </vehicle>
    <vehicle id="125" type="truck" depart="343.89">
        <route edges="B0B1 B1B2 B2C2 C2C1 C1C2"/>
    </vehicle>
    <vehicle id="126" type="bus" depart="345.93">
        <route edges="D2D1 D1D0 D0E0 E0E1 E1D1 D1E1"/>
    </vehicle>
    <vehicle id="127" type="truck" depart="348.27">
        <route edges="C1C0 C0C1"/>
    </vehicle>
    <vehicle id="128" type="bus" depart="350.04">
        <route edges="A1B1 B1B0 B0C0 C0D0"/>
    </vehicle>
    <vehicle id="129" type="car" depart="352.20">
        <route edges="C1C2 C2D2 D2E2 E2E1 E1E0 E0D0 D0C0"/>
    </vehicle>
    <vehicle id="130" type="truck" depart="354.65">
        <route edges="C1D1 D1E1 E1E0 E0D0 D0E0 E0E1 E1E0"/>
    </vehicle>
    <vehicle id="131" type="car" depart="356.26">
        <route edges="B0A0 A0A1 A1B1 B1C1"/>
    </vehicle>
    <vehicle id="132" type="car" depart="358.52">
        <route edges="E0E1 E1D1 D1C1 C1D1 D1E1"/>
    </vehicle>
    <vehicle id="133" type="bus" depart="360.97">
        <route edges="E1E2 E2D2 D2E2 E2E1 E1E0 E0D0"/>
    </vehicle>
    <vehicle id="134" type="truck" depart="362.72">
        <route edges="B2C2 C2C1"/>
    </vehicle>
    <vehicle id="135" type="truck" depart="364.36">
        <route edges="B1B2 B2C2 C2B2 B2A2 A2A1"/>
    </vehicle>
    <vehicle id="136" type="car" depart="364.94">
        <route edges="A1A0 A0B0 B0A0 A0A1 A1A2 A2B2 B2C2"/>
    </vehicle>
    <vehicle id="137" type="truck" depart="366.30">
        <route edges="C0C1 C1C0 C0B0 B0A0"/>
    </vehicle>
    <vehicle id="138" type="truck" depart="367.07">
        <route edges="B1B2 B2A2"/>
    </vehicle>
    <vehicle id="139" type="truck" depart="368.41">
        <route edges="D2C2 C2C1 C1D1 D1E1 E1D1 D1C1"/>
    </vehicle>
    <vehicle id="140" type="bus" depart="369.10">
        <route edges="D1D2 D2D1 D1D0 D0C0"/>
    </vehicle>
    <vehicle id="141" type="truck" depart="370.35">
        <route edges="A2B2 B2B1"/>
    </vehicle>
    <vehicle id="142" type="bus" depart="370.86">
        <route edges="D1D0 D0D1 D1C1 C1D1 D1E1 E1E2"/>
    </vehicle>
    <vehicle id="143" type="bus" depart="372.02">
        <route edges="B1B2 B2C2 C2B2 B2A2 A2A1"/>
    </vehicle>
    <vehicle id="144" type="truck" depart="372.71">
        <route edges="D1D0 D0C0 C0D0 D0E0 E0E1 E1E2"/>
    </vehicle>
    <vehicle id="145" type="bus" depart="373.84">
        <route edges="B2A2 A2A1"/>
    </vehicle>
    <vehicle id="146" type="bus" depart="375.29">
        <route edges="C1C2 C2D2 D2E2 E2E1 E1E0 E0D0 D0C0"/>
    </vehicle>
    <vehicle id="147" type="bus" depart="375.85">
        <route edges="B1B0 B0B1 B1B2 B2C2 C2B2 B2C2"/>
    </vehicle>
    <vehicle id="148" type="truck" depart="377.18">
        <route edges="C0B0 B0B1 B1B2 B2A2 A2A1 A1B1"/>
    </vehicle>
    <vehicle id="149" type="car" depart="377.91">
        <route edges="B0A0 A0A1 A1B1 B1C1"/>
    </vehicle>
    <vehicle id="150" type="car" depart="378.77">
        <route edges="D1D0 D0D1 D1C1 C1D1 D1E1 E1E2"/>
    </vehicle>
    <vehicle id="151" type="car" depart="379.70">
        <route edges="B2B1 B1C1 C1B1 B1C1 C1C0 C0B0"/>
    </vehicle>
    <vehicle id="152" type="bus" depart="380.80">
        <route edges="B0A0 A0A1 A1A2 A2B2 B2A2 A2A1"/>
    </vehicle>
    <vehicle id="153" type="truck" depart="381.89">
        <route edges="B2B1 B1C1 C1B1 B1C1 C1C0 C0B0"/>
    </vehicle>
    <vehicle id="154" type="bus" depart="382.52">
        <route edges="E2E1 E1E0"/>
    </vehicle>
    <vehicle id="155" type="bus" depart="383.14">
        <route edges="D0C0 C0C1 C1C2 C2C1 C1D1"/>
    </vehicle>
    <vehicle id="156" type="bus" depart="384.40">
        <route edges="D2D1 D1D0 D0E0 E0E1 E1D1 D1E1"/>
    </vehicle>
    <vehicle id="157" type="bus" depart="385.35">
        <route edges="B1C1 C1D1 D1D0 D0E0 E0E1 E1D1"/>
    </vehicle>
    <vehicle id="158" type="truck" depart="386.55">
        <route edges="C2D2 D2C2 C2B2 B2A2"/>
    </vehicle>
    <vehicle id="159" type="bus" depart="387.26">
        <route edges="D0D1 D1C1 C1C2 C2D2 D2C2 C2C1"/>
    </vehicle>
    <vehicle id="160" type="truck" depart="388.57">
        <route edges="A0B0 B0C0 C0D0 D0C0 C0B0"/>
    </vehicle>
    <vehicle id="161" type="bus" depart="389.89">
        <route edges="C1C2 C2D2 D2E2 E2E1 E1E0 E0D0 D0C0"/>
    </vehicle>
    <vehicle id="162" type="car" depart="390.84">
        <route edges="A2B2 B2B1 B1B0"/>
    </vehicle>
    <vehicle id="163" type="truck" depart="391.43">
        <route edges="D2C2 C2B2 B2A2"/>
    </vehicle>
    <vehicle id="164" type="bus" depart="392.03">
        <route edges="C1D1 D1E1 E1E0 E0D0 D0E0 E0E1 E1E0"/>
    </vehicle>
    <vehicle id="165" type="truck" depart="393.13">
        <route edges="C2D2 D2E2"/>
    </vehicle>
    <vehicle id="166" type="truck" depart="393.64">
        <route edges="A1A0 A0B0 B0C0 C0B0"/>
    </vehicle>
    <vehicle id="167" type="car" depart="394.67">
        <route edges="D0D1 D1C1 C1C2 C2D2 D2C2 C2C1"/>
    </vehicle>
    <vehicle id="168" type="car" depart="395.45">
        <route edges="E0E1 E1D1 D1C1 C1D1 D1E1"/>
    </vehicle>
    <vehicle id="169" type="bus" depart="396.73">
        <route edges="D1E1 E1E0 E0D0 D0C0 C0B0 B0C0 C0B0"/>
    </vehicle>
    <vehicle id="170" type="truck" depart="397.87">
        <route edges="B0B1 B1B2 B2B1 B1A1 A1A2 A2B2 B2B1"/>
    </vehicle>
    <vehicle id="171" type="truck" depart="398.94">
        <route edges="C2D2 D2E2"/>
    </vehicle>
    <vehicle id="172" type="car" depart="400.32">
        <route edges="C0B0 B0B1 B1B2 B2A2 A2A1 A1B1"/>
    </vehicle>
    <vehicle id="173" type="bus" depart="400.84">
        <route edges="E1D1 D1C1 C1B1 B1A1"/>
    </vehicle>
    <vehicle id="174" type="bus" depart="401.82">
        <route edges="D0E0 E0E1 E1D1"/>
    </vehicle>
    <vehicle id="175" type="car" depart="403.09">
        <route edges="C1C0 C0C1"/>
    </vehicle>
    <vehicle id="176" type="truck" depart="404.30">
        <route edges="B1B0 B0B1 B1B2"/>
    </vehicle>
    <vehicle id="177" type="car" depart="405.29">
        <route edges="B1B0 B0B1 B1B2 B2C2 C2B2 B2C2"/>
    </vehicle>
    <vehicle id="178" type="truck" depart="406.26">
        <route edges="D0D1 D1D2 D2D1 D1E1"/>
    </vehicle>
    <vehicle id="179" type="car" depart="407.34">
        <route edges="E2D2 D2C2"/>
    </vehicle>
    <vehicle id="180" type="truck" depart="408.52">
        <route edges="C1B1 B1A1 A1A0"/>
    </vehicle>
    <vehicle id="181" type="truck" depart="409.03">
        <route edges="A1B1 B1C1 C1D1 D1E1 E1E0 E0D0 D0D1"/>
    </vehicle>
    <vehicle id="182" type="car" depart="409.82">
        <route edges="A2B2 B2B1 B1B0"/>
    </vehicle>
    <vehicle id="183" type="truck" depart="410.47">
        <route edges="D2C2 C2C1 C1D1 D1E1 E1D1 D1C1"/>
    </vehicle>
    <vehicle id="184" type="bus" depart="411.93">
        <route edges="D2C2 C2B2 B2A2"/>
    </vehicle>
    <vehicle id="185" type="bus" depart="412.68">
        <route edges="C0C1 C1C2 C2D2 D2E2 E2E1"/>
    </vehicle>
    <vehicle id="186" type="bus" depart="413.52">
        <route edges="A2A1 A1A2 A2B2 B2C2 C2B2 B2A2"/>
    </vehicle>
    <vehicle id="187" type="car" depart="414.05">
        <route edges="E0D0 D0C0 C0D0"/>
    </vehicle>
    <vehicle id="188" type="truck" depart="415.03">
        <route edges="D1D0 D0C0 C0D0 D0E0 E0E1 E1E2"/>
    </vehicle>
    <vehicle id="189" type="car" depart="416.16">
        <route edges="B1A1 A1A2 A2B2"/>
    </vehicle>
    <vehicle id="190" type="bus" depart="417.24">
        <route edges="D1E1 E1E0 E0D0"/>
    </vehicle>
    <vehicle id="191" type="truck" depart="418.36">
        <route edges="C2C1 C1B1"/>
    </vehicle>
    <vehicle id="192" type="truck" depart="419.37">
        <route edges="A1A2 A2B2 B2B1 B1B0 B0B1 B1B2 B2C2"/>
    </vehicle>
    <vehicle id="193" type="bus" depart="420.54">
        <route edges="D1D0 D0D1 D1C1 C1D1 D1E1 E1E2"/>
    </vehicle>
    <vehicle id="194" type="car" depart="421.61">
        <route edges="B2B1 B1C1 C1B1 B1C1 C1C0 C0B0"/>
    </vehicle>
    <vehicle id="195" type="truck" depart="422.65">
        <route edges="C1C0 C0C1"/>
    </vehicle>
    <vehicle id="196" type="truck" depart="423.41">
        <route edges="C2C1 C1C0"/>
    </vehicle>
    <vehicle id="197" type="bus" depart="424.17">
        <route edges="C1C2 C2D2 D2E2 E2E1 E1E0 E0D0 D0C0"/>
    </vehicle>
    <vehicle id="198" type="bus" depart="425.01">
        <route edges="D0D1 D1C1 C1C2 C2D2 D2C2 C2C1"/>
    </vehicle>
    <vehicle id="199" type="truck" depart="426.35">
        <route edges="E1E2 E2D2 D2C2"/>
    </vehicle>
    <vehicle id="200" type="car" depart="427.74">
        <route edges="D1D0 D0C0"/>
    </vehicle>
    <vehicle id="201" type="car" depart="429.20">
        <route edges="E2E1 E1E2 E2D2"/>
    </vehicle>
    <vehicle id="202" type="car" depart="429.86">
        <route edges="B1B0 B0B1 B1B2 B2C2 C2B2 B2C2"/>
    </vehicle>
    <vehicle id="203" type="car" depart="430.61">
        <route edges="E2D2 D2C2"/>
    </vehicle>
    <vehicle id="204" type="car" depart="431.37">
        <route edges="D0D1 D1D2 D2D1 D1E1"/>
    </vehicle>
    <vehicle id="205" type="car" depart="432.14">
        <route edges="B1B2 B2C2 C2B2 B2A2 A2A1"/>
    </vehicle>
    <vehicle id="206" type="car" depart="433.27">
        <route edges="E2D2 D2C2"/>
    </vehicle>
    <vehicle id="207" type="car" depart="434.51">
        <route edges="D1D0 D0C0 C0D0 D0E0 E0E1 E1E2"/>
    </vehicle>
    <vehicle id="208" type="bus" depart="435.12">
        <route edges="C1D1 D1C1"/>
    </vehicle>
    <vehicle id="209" type="truck" depart="436.60">
        <route edges="C2C1 C1C0"/>
    </vehicle>
    <vehicle id="210" type="bus" depart="437.45">
        <route edges="B2C2 C2D2 D2C2"/>
    </vehicle>
    <vehicle id="211" type="truck" depart="438.92">
        <route edges="D1D2 D2D1 D1D0 D0C0"/>
    </vehicle>
    <vehicle id="212" type="bus" depart="439.78">
        <route edges="E1E2 E2D2"/>
    </vehicle>
    <vehicle id="213" type="bus" depart="440.91">
        <route edges="A0B0 B0B1 B1A1"/>
    </vehicle>
    <vehicle id="214" type="car" depart="441.84">
        <route edges="B1C1 C1D1"/>
    </vehicle>
    <vehicle id="215" type="car" depart="443.15">
        <route edges="A2A1 A1A0 A0B0"/>
    </vehicle>
    <vehicle id="216" type="bus" depart="444.12">
        <route edges="A0B0 B0C0 C0D0 D0C0 C0B0"/>
    </vehicle>
    <vehicle id="217" type="truck" depart="445.62">
        <route edges="B1B2 B2A2"/>
    </vehicle>
    <vehicle id="218" type="truck" depart="447.01">
        <route edges="D2D1 D1D0 D0C0 C0B0 B0A0 A0A1"/>
    </vehicle>
    <vehicle id="219" type="car" depart="448.41">
        <route edges="A1A2 A2B2 B2B1 B1B0 B0B1 B1B2 B2C2"/>
    </vehicle>
    <vehicle id="220" type="car" depart="449.89">
        <route edges="C0C1 C1D1 D1E1 E1E0 E0D0 D0D1 D1D2"/>
    </vehicle>
    <vehicle id="221" type="truck" depart="450.68">
        <route edges="A2A1 A1A2 A2B2 B2C2 C2B2 B2A2"/>
    </vehicle>
    <vehicle id="222" type="bus" depart="451.74">
        <route edges="D0E0 E0E1 E1D1 D1D2 D2D1 D1E1"/>
    </vehicle>
    <vehicle id="223" type="car" depart="452.82">
        <route edges="D0C0 C0C1 C1C2 C2C1 C1D1"/>
    </vehicle>
    <vehicle id="224" type="bus" depart="453.93">
        <route edges="C1D1 D1E1 E1E0 E0D0 D0E0 E0E1 E1E0"/>
    </vehicle>
    <vehicle id="225" type="bus" depart="455.00">
        <route edges="B0B1 B1C1 C1D1 D1C1 C1B1"/>
    </vehicle>
    <vehicle id="226" type="car" depart="456.32">
        <route edges="D1D2 D2D1 D1C1 C1D1"/>
    </vehicle>
    <vehicle id="227" type="bus" depart="457.70">
        <route edges="D2E2 E2E1 E1E0 E0D0"/>
    </vehicle>
    <vehicle id="228" type="car" depart="458.64">
        <route edges="C0B0 B0C0 C0D0 D0D1 D1D2 D2E2 E2E1"/>
    </vehicle>
    <vehicle id="229" type="car" depart="460.07">
        <route edges="B1B0 B0B1 B1B2"/>
    </vehicle>
    <vehicle id="230" type="truck" depart="461.34">
        <route edges="B0C0 C0C1 C1C0 C0B0 B0B1 B1C1 C1D1"/>
    </vehicle>
    <vehicle id="231" type="truck" depart="462.65">
        <route edges="D0C0 C0C1 C1C2 C2C1 C1D1"/>
    </vehicle>
    <vehicle id="232" type="car" depart="464.08">
        <route edges="D1D2 D2D1 D1C1 C1D1"/>
    </vehicle>
    <vehicle id="233" type="car" depart="465.50">
        <route edges="C1B1 B1A1 A1A0"/>
    </vehicle>
    <vehicle id="234" type="bus" depart="466.62">
        <route edges="B1C1 C1B1 B1B0 B0B1 B1B0"/>
    </vehicle>
    <vehicle id="235" type="car" depart="467.40">
        <route edges="D1E1 E1E0 E0D0 D0C0 C0B0 B0C0 C0B0"/>
    </vehicle>
    <vehicle id="236" type="car" depart="467.98">
        <route edges="E2E1 E1E2 E2D2"/>
    </vehicle>
    <vehicle id="237" type="car" depart="468.71">
        <route edges="D1D0 D0C0"/>
    </vehicle>
    <vehicle id="238" type="car" depart="469.73">
        <route edges="B1B0 B0B1 B1B2"/>
    </vehicle>
    <vehicle id="239" type="car" depart="470.73">
        <route edges="B1A1 A1A2 A2B2"/>
    </vehicle>
    <vehicle id="240" type="bus" depart="471.45">
        <route edges="B2B1 B1B2 B2C2 C2D2 D2E2 E2E1"/>
    </vehicle>
    <vehicle id="241" type="truck" depart="471.98">
        <route edges="A0A1 A1B1 B1B0 B0A0 A0A1 A1A2"/>
    </vehicle>
    <vehicle id="242" type="truck" depart="473.43">
        <route edges="A1A0 A0B0 B0C0 C0D0"/>
    </vehicle>
    <vehicle id="243" type="car" depart="474.07">
        <route edges="E2E1 E1E0"/>
    </vehicle>
    <vehicle id="244" type="bus" depart="475.48">
        <route edges="A1A0 A0B0 B0C0 C0D0"/>
    </vehicle>
    <vehicle id="245" type="bus" depart="476.63">
        <route edges="E0E1 E1D1 D1C1 C1D1 D1E1"/>
    </vehicle>
    <vehicle id="246" type="bus" depart="477.59">
        <route edges="D1D0 D0C0"/>
    </vehicle>
    <vehicle id="247" type="truck" depart="478.66">
        <route edges="B0C0 C0C1 C1C0 C0B0 B0B1 B1C1 C1D1"/>
    </vehicle>
    <vehicle id="248" type="car" depart="479.60">
        <route edges="E1D1 D1D2 D2E2 E2E1"/>
    </vehicle>
    <vehicle id="249" type="car" depart="480.52">
        <route edges="D2D1 D1D0 D0C0 C0B0 B0A0 A0A1"/>
    </vehicle>
    <vehicle id="250" type="bus" depart="481.46">
        <route edges="E1E0 E0D0 D0C0 C0C1"/>
    </vehicle>
    <vehicle id="251" type="truck" depart="482.55">
        <route edges="C2D2 D2E2"/>
    </vehicle>
    <vehicle id="252" type="truck" depart="483.08">
        <route edges="B0A0 A0A1 A1B1 B1C1"/>
    </vehicle>
    <vehicle id="253" type="truck" depart="484.38">
        <route edges="A0B0 B0C0 C0D0 D0E0"/>
    </vehicle>
    <vehicle id="254" type="truck" depart="485.55">
        <route edges="A2B2 B2B1"/>
    </vehicle>
    <vehicle id="255" type="bus" depart="486.99">
        <route edges="A0B0 B0B1 B1A1"/>
    </vehicle>
    <vehicle id="256" type="truck" depart="488.47">
        <route edges="E1D1 D1C1 C1B1 B1A1"/>
    </vehicle>
    <vehicle id="257" type="truck" depart="489.27">
        <route edges="D0E0 E0E1 E1E2 E2D2 D2C2 C2B2"/>
    </vehicle>
    <vehicle id="258" type="car" depart="490.19">
        <route edges="A1A2 A2B2 B2B1 B1B0 B0B1 B1B2 B2C2"/>
    </vehicle>
    <vehicle id="259" type="truck" depart="490.69">
        <route edges="A0B0 B0C0 C0D0 D0C0 C0B0"/>
    </vehicle>
    <vehicle id="260" type="car" depart="491.26">
        <route edges="C2C1 C1B1"/>
    </vehicle>
    <vehicle id="261" type="truck" depart="492.54">
        <route edges="C1D1 D1D0"/>
    </vehicle>
    <vehicle id="262" type="truck" depart="493.44">
        <route edges="E1E0 E0D0"/>
    </vehicle>
    <vehicle id="263" type="car" depart="494.75">
        <route edges="C0D0 D0D1"/>
    </vehicle>
    <vehicle id="264" type="truck" depart="495.92">
        <route edges="A2A1 A1A2 A2B2 B2C2 C2B2 B2A2"/>
    </vehicle>
    <vehicle id="265" type="bus" depart="497.14">
        <route edges="B0C0 C0D0 D0E0 E0E1"/>
    </vehicle>
    <vehicle id="266" type="truck" depart="498.32">
        <route edges="B1C1 C1D1 D1D0 D0E0 E0E1 E1D1"/>