<?xml version="1.0" ?>
<routes>
    <vType id="car" accel="2.6" decel="4.5" sigma="0.5" length="5" maxSpeed="70"/>
    <vType id="bus" accel="1.2" decel="4.0" sigma="0.5" length="12" maxSpeed="50"/>
    <vType id="truck" accel="1.0" decel="4.0" sigma="0.5" length="8" maxSpeed="60"/>
    <vehicle id="0" type="bus" depart="0.00">
        <route edges="C1D1 D1C1"/>
    </vehicle>
    <vehicle id="1" type="bus" depart="4.15">
        <route edges="C0B0 B0C0"/>
    </vehicle>
    <vehicle id="2" type="car" depart="8.39">
        <route edges="C0B0 B0C0 C0D0 D0C0 C0B0 B0B1"/>
    </vehicle>
    <vehicle id="3" type="car" depart="12.53">
        <route edges="C0B0 B0C0 C0D0 D0C0 C0B0 B0B1"/>
    </vehicle>
    <vehicle id="4" type="bus" depart="16.16">
        <route edges="A2B2 B2C2 C2D2 D2E2 E2E1 E1E0 E0D0"/>
    </vehicle>
    <vehicle id="5" type="car" depart="20.34">
        <route edges="D2E2 E2E1 E1E2 E2D2 D2C2 C2C1 C1D1"/>
    </vehicle>
    <vehicle id="6" type="bus" depart="24.10">
        <route edges="D2C2 C2C1 C1C0 C0D0 D0E0"/>
    </vehicle>
    <vehicle id="7" type="car" depart="27.95">
        <route edges="A0B0 B0B1 B1B2 B2C2 C2B2 B2C2 C2C1"/>
    </vehicle>
    <vehicle id="8" type="car" depart="31.47">
        <route edges="D2C2 C2B2 B2A2 A2A1 A1A0"/>
    </vehicle>
    <vehicle id="9" type="car" depart="35.27">
        <route edges="C0C1 C1C2"/>
    </vehicle>
    <vehicle id="10" type="truck" depart="39.03">
        <route edges="C0B0 B0C0"/>
    </vehicle>
    <vehicle id="11" type="bus" depart="42.65">
        <route edges="D2C2 C2B2 B2A2 A2A1 A1A0"/>
    </vehicle>
    <vehicle id="12" type="car" depart="46.40">
        <route edges="E0D0 D0C0 C0B0 B0A0"/>
    </vehicle>
    <vehicle id="13" type="truck" depart="50.15">
        <route edges="D2E2 E2E1 E1E0 E0D0 D0C0 C0C1 C1C0"/>
    </vehicle>
    <vehicle id="14" type="bus" depart="54.28">
        <route edges="A1A2 A2B2 B2B1 B1B2"/>
    </vehicle>
    <vehicle id="15" type="car" depart="58.01">
        <route edges="C0B0 B0C0"/>
    </vehicle>
    <vehicle id="16" type="car" depart="62.23">
        <route edges="D0E0 E0E1 E1D1"/>
    </vehicle>
    <vehicle id="17" type="bus" depart="66.35">
        <route edges="B0B1 B1B0 B0B1 B1C1 C1D1"/>
    </vehicle>
    <vehicle id="18" type="truck" depart="70.20">
        <route edges="D0E0 E0E1 E1E2 E2D2 D2C2 C2C1 C1D1"/>
    </vehicle>
    <vehicle id="19" type="car" depart="74.67">
        <route edges="E0D0 D0C0 C0B0 B0B1"/>
    </vehicle>
    <vehicle id="20" type="car" depart="78.85">
        <route edges="B2C2 C2D2 D2C2 C2C1"/>
    </vehicle>
    <vehicle id="21" type="car" depart="82.48">
        <route edges="B2A2 A2A1 A1A0"/>
    </vehicle>
    <vehicle id="22" type="bus" depart="86.39">
        <route edges="C2B2 B2C2 C2C1"/>
    </vehicle>
    <vehicle id="23" type="truck" depart="90.68">
        <route edges="C2C1 C1B1 B1B2 B2A2"/>
    </vehicle>
    <vehicle id="24" type="bus" depart="94.33">
        <route edges="E1D1 D1C1 C1D1 D1C1 C1B1"/>
    </vehicle>
    <vehicle id="25" type="car" depart="98.15">
        <route edges="E2D2 D2C2 C2C1 C1C2 C2D2 D2C2 C2C1"/>
    </vehicle>
    <vehicle id="26" type="truck" depart="101.76">
        <route edges="A1A2 A2B2 B2B1 B1C1 C1D1 D1E1 E1E0"/>
    </vehicle>
    <vehicle id="27" type="car" depart="106.07">
        <route edges="D2D1 D1C1"/>
    </vehicle>
    <vehicle id="28" type="bus" depart="109.72">
        <route edges="A0A1 A1A2"/>
    </vehicle>
    <vehicle id="29" type="car" depart="113.30">
        <route edges="C0B0 B0C0"/>
    </vehicle>
    <vehicle id="30" type="car" depart="117.41">
        <route edges="D0D1 D1D2 D2E2 E2E1 E1E0 E0D0"/>
    </vehicle>
    <vehicle id="31" type="car" depart="121.02">
        <route edges="A0B0 B0B1 B1B2 B2C2 C2B2 B2C2 C2C1"/>
    </vehicle>
    <vehicle id="32" type="car" depart="125.37">
        <route edges="D1C1 C1B1"/>
    </vehicle>
    <vehicle id="33" type="truck" depart="129.29">
        <route edges="B2A2 A2A1 A1A0 A0B0 B0B1 B1B2 B2A2"/>
    </vehicle>
    <vehicle id="34" type="truck" depart="133.30">
        <route edges="C1C0 C0B0 B0A0 A0A1 A1A2 A2B2 B2C2"/>
    </vehicle>
    <vehicle id="35" type="truck" depart="137.00">
        <route edges="B1B2 B2C2 C2D2"/>
    </vehicle>
    <vehicle id="36" type="car" depart="141.39">
        <route edges="C0B0 B0C0 C0D0 D0C0 C0B0 B0B1"/>
    </vehicle>
    <vehicle id="37" type="truck" depart="145.60">
        <route edges="A0B0 B0C0 C0B0 B0A0 A0A1 A1A0 A0B0"/>
    </vehicle>
    <vehicle id="38" type="bus" depart="149.95">
        <route edges="A1A0 A0B0 B0C0 C0D0"/>
    </vehicle>
    <vehicle id="39" type="bus" depart="153.51">
        <route edges="D1E1 E1E0"/>
    </vehicle>
    <vehicle id="40" type="car" depart="157.78">
        <route edges="E1E2 E2D2 D2C2 C2D2"/>
    </vehicle>
    <vehicle id="41" type="bus" depart="162.01">
        <route edges="B0B1 B1B0"/>
    </vehicle>
    <vehicle id="42" type="car" depart="165.87">
        <route edges="A0A1 A1A2 A2B2 B2A2 A2A1 A1A0 A0B0"/>
    </vehicle>
    <vehicle id="43" type="bus" depart="169.56">
        <route edges="D2C2 C2B2 B2A2 A2A1 A1A0"/>
    </vehicle>
    <vehicle id="44" type="car" depart="173.62">
        <route edges="C0C1 C1C2"/>
    </vehicle>
    <vehicle id="45" type="truck" depart="177.83">
        <route edges="B2B1 B1B0 B0C0 C0D0"/>
    </vehicle>
    <vehicle id="46" type="car" depart="182.26">
        <route edges="B1B2 B2C2 C2D2"/>
    </vehicle>
    <vehicle id="47" type="car" depart="184.11">
        <route edges="A1A2 A2B2 B2B1 B1B0"/>
    </vehicle>
    <vehicle id="48" type="car" depart="186.18">
        <route edges="B2C2 C2C1 C1C0 C0B0"/>
    </vehicle>
    <vehicle id="49" type="bus" depart="188.55">
        <route edges="A0B0 B0C0 C0B0 B0A0 A0A1 A1A0 A0B0"/>
    </vehicle>
    <vehicle id="50" type="car" depart="191.02">
        <route edges="C2B2 B2C2 C2C1"/>
    </vehicle>
    <vehicle id="51" type="bus" depart="192.72">
        <route edges="D0D1 D1D2 D2E2 E2E1"/>
    </vehicle>
    <vehicle id="52" type="bus" depart="195.01">
        <route edges="D2C2 C2C1 C1C0 C0D0 D0E0"/>
    </vehicle>
    <vehicle id="53" type="truck" depart="197.43">
        <route edges="B0B1 B1B0 B0B1 B1C1 C1D1"/>
    </vehicle>
    <vehicle id="54" type="truck" depart="199.03">
        <route edges="A0A1 A1A2"/>
    </vehicle>
    <vehicle id="55" type="bus" depart="200.57">
        <route edges="C1C2 C2D2 D2E2 E2E1 E1D1"/>
    </vehicle>
    <vehicle id="56" type="bus" depart="202.85">
        <route edges="E0E1 E1E0 E0D0"/>
    </vehicle>
    <vehicle id="57" type="truck" depart="204.84">
        <route edges="B0B1 B1B0 B0B1 B1C1 C1D1"/>
    </vehicle>
    <vehicle id="58" type="bus" depart="206.50">
        <route edges="D0E0 E0E1"/>
    </vehicle>
    <vehicle id="59" type="car" depart="208.25">
        <route edges="A0B0 B0B1 B1B2 B2C2 C2B2 B2C2 C2C1"/>
    </vehicle>
    <vehicle id="60" type="truck" depart="210.32">
        <route edges="B0B1 B1B0"/>
    </vehicle>
    <vehicle id="61" type="car" depart="211.94">
        <route edges="C1C0 C0D0 D0E0 E0E1 E1D1 D1E1"/>
    </vehicle>
    <vehicle id="62" type="truck" depart="213.89">
        <route edges="A1A2 A2B2 B2B1 B1C1 C1D1 D1E1 E1E0"/>
    </vehicle>
    <vehicle id="63" type="truck" depart="216.36">
        <route edges="A2B2 B2C2 C2D2 D2E2 E2E1 E1E0 E0D0"/>
    </vehicle>
    <vehicle id="64" type="car" depart="218.21">
        <route edges="D0D1 D1D2 D2E2 E2E1 E1E0 E0D0"/>
    </vehicle>
    <vehicle id="65" type="car" depart="220.50">
        <route edges="D1E1 E1E0"/>
    </vehicle>
    <vehicle id="66" type="bus" depart="222.06">
        <route edges="A1A0 A0B0"/>
    </vehicle>
    <vehicle id="67" type="bus" depart="224.47">
        <route edges="D2C2 C2B2 B2A2 A2A1 A1A2 A2B2"/>
    </vehicle>
    <vehicle id="68" type="bus" depart="226.86">
        <route edges="C2B2 B2A2 A2A1 A1A0 A0B0 B0B1"/>
    </vehicle>
    <vehicle id="69" type="truck" depart="228.89">
        <route edges="A2B2 B2C2 C2D2 D2E2 E2E1 E1E0 E0D0"/>
    </vehicle>
    <vehicle id="70" type="car" depart="230.48">
        <route edges="B0A0 A0A1"/>
    </vehicle>
    <vehicle id="71" type="car" depart="232.90">
        <route edges="C1C2 C2C1 C1C0 C0C1 C1B1"/>
    </vehicle>
    <vehicle id="72" type="truck" depart="234.60">
        <route edges="D0D1 D1D2 D2E2 E2E1 E1E0 E0D0"/>
    </vehicle>
    <vehicle id="73" type="car" depart="236.59">
        <route edges="C2B2 B2C2 C2C1"/>
    </vehicle>
    <vehicle id="74" type="bus" depart="238.44">
        <route edges="B2A2 A2A1 A1A2 A2B2"/>
    </vehicle>
    <vehicle id="75" type="bus" depart="240.71">
        <route edges="B1A1 A1A2 A2B2 B2C2"/>
    </vehicle>
    <vehicle id="76" type="truck" depart="242.36">
        <route edges="D2E2 E2E1 E1E2 E2D2 D2C2 C2C1 C1D1"/>
    </vehicle>
    <vehicle id="77" type="car" depart="244.10">
        <route edges="A1A2 A2B2 B2B1 B1C1 C1D1 D1E1 E1E0"/>
    </vehicle>
    <vehicle id="78" type="truck" depart="246.36">
        <route edges="D2E2 E2E1 E1E0 E0D0 D0C0 C0C1 C1C0"/>
    </vehicle>
    <vehicle id="79" type="car" depart="248.28">
        <route edges="D0E0 E0E1 E1D1"/>
    </vehicle>
    <vehicle id="80" type="bus" depart="249.95">
        <route edges="E2D2 D2C2 C2C1 C1D1"/>
    </vehicle>
    <vehicle id="81" type="car" depart="251.45">
        <route edges="D1E1 E1E0 E0D0"/>
    </vehicle>
    <vehicle id="82" type="bus" depart="253.49">
        <route edges="E0D0 D0C0 C0B0 B0B1"/>
    </vehicle>
    <vehicle id="83" type="bus" depart="255.36">
        <route edges="C2B2 B2B1"/>
    </vehicle>
    <vehicle id="84" type="bus" depart="257.58">
        <route edges="D0E0 E0E1 E1E2 E2D2 D2C2 C2C1 C1D1"/>
    </vehicle>
    <vehicle id="85" type="bus" depart="260.06">
        <route edges="D1E1 E1E0 E0D0"/>
    </vehicle>
    <vehicle id="86" type="car" depart="262.23">
        <route edges="B1C1 C1C2 C2D2 D2D1"/>
    </vehicle>
    <vehicle id="87" type="truck" depart="264.15">
        <route edges="B1A1 A1A2"/>
    </vehicle>
    <vehicle id="88" type="bus" depart="266.19">
        <route edges="B2A2 A2A1 A1A0 A0B0 B0B1 B1B2 B2A2"/>
    </vehicle>
    <vehicle id="89" type="bus" depart="268.48">
        <route edges="C1C0 C0B0 B0A0 A0A1 A1A2 A2B2 B2C2"/>
    </vehicle>
    <vehicle id="90" type="truck" depart="270.94">
        <route edges="D0D1 D1C1 C1C0 C0B0 B0A0 A0A1 A1A2"/>
    </vehicle>
    <vehicle id="91" type="car" depart="272.44">
        <route edges="C1D1 D1E1 E1D1"/>
    </vehicle>
    <vehicle id="92" type="truck" depart="274.92">
        <route edges="A2A1 A1B1 B1A1 A1A2 A2B2 B2A2"/>
    </vehicle>
    <vehicle id="93" type="car" depart="276.57">
        <route edges="D1E1 E1E0 E0D0 D0C0 C0D0 D0E0"/>
    </vehicle>
    <vehicle id="94" type="car" depart="278.50">
        <route edges="D2C2 C2B2 B2A2 A2A1 A1A0"/>
    </vehicle>
    <vehicle id="95" type="car" depart="280.16">
        <route edges="A0B0 B0C0 C0B0 B0A0 A0A1 A1A0 A0B0"/>
    </vehicle>
    <vehicle id="96" type="bus" depart="282.33">
        <route edges="B0C0 C0D0 D0E0 E0E1 E1E0 E0D0 D0E0"/>
    </vehicle>
    <vehicle id="97" type="car" depart="284.54">
        <route edges="C1B1 B1C1 C1B1 B1A1 A1A0"/>
    </vehicle>
    <vehicle id="98" type="bus" depart="286.15">
        <route edges="B2A2 A2A1 A1A2 A2B2"/>
    </vehicle>
    <vehicle id="99" type="truck" depart="287.89">
        <route edges="A1A0 A0B0"/>
    </vehicle>
    <vehicle id="100" type="bus" depart="289.44">
        <route edges="D2D1 D1C1"/>
    </vehicle>
    <vehicle id="101" type="truck" depart="290.97">
        <route edges="B0B1 B1B0"/>
    </vehicle>
    <vehicle id="102" type="truck" depart="292.57">
        <route edges="D1C1 C1B1"/>
    </vehicle>
    <vehicle id="103" type="car" depart="294.41">
        <route edges="D1D2 D2D1 D1C1"/>
    </vehicle>
    <vehicle id="104" type="car" depart="296.78">
        <route edges="D2E2 E2E1 E1E2 E2D2 D2C2 C2C1 C1D1"/>
    </vehicle>
    <vehicle id="105" type="car" depart="298.68">
        <route edges="B1B2 B2C2 C2D2"/>
    </vehicle>
    <vehicle id="106" type="car" depart="300.30">
        <route edges="D2E2 E2E1 E1E2 E2D2 D2C2 C2C1 C1D1"/>
    </vehicle>
    <vehicle id="107" type="bus" depart="302.63">
        <route edges="A1A2 A2B2 B2B1 B1C1 C1D1 D1E1 E1E0"/>
    </vehicle>
    <vehicle id="108" type="car" depart="304.42">
        <route edges="B2A2 A2A1 A1A2 A2B2"/>
    </vehicle>
    <vehicle id="109" type="truck" depart="306.01">
        <route edges="D0E0 E0E1 E1E2 E2D2 D2C2 C2C1 C1D1"/>
    </vehicle>
    <vehicle id="110" type="bus" depart="307.85">
        <route edges="C0C1 C1B1 B1C1"/>
    </vehicle>
    <vehicle id="111" type="car" depart="309.87">
        <route edges="C2B2 B2B1"/>
    </vehicle>
    <vehicle id="112" type="car" depart="311.50">
        <route edges="B0B1 B1B0"/>
    </vehicle>
    <vehicle id="113" type="truck" depart="313.55">
        <route edges="A0A1 A1A2 A2B2 B2A2 A2A1 A1A0 A0B0"/>
    </vehicle>
    <vehicle id="114" type="car" depart="315.09">
        <route edges="B0B1 B1B0 B0B1 B1C1 C1D1"/>
    </vehicle>
    <vehicle id="115" type="bus" depart="316.72">
        <route edges="E2D2 D2C2 C2C1 C1D1"/>
    </vehicle>
    <vehicle id="116" type="bus" depart="318.31">
        <route edges="B1B2 B2C2 C2D2"/>
    </vehicle>
    <vehicle id="117" type="car" depart="320.10">
        <route edges="A1A2 A2B2 B2B1 B1B0"/>
    </vehicle>
    <vehicle id="118" type="car" depart="322.39">
        <route edges="A2A1 A1B1 B1A1 A1A2 A2B2 B2A2"/>
    </vehicle>
    <vehicle id="119" type="bus" depart="323.91">
        <route edges="E1D1 D1C1 C1D1 D1C1 C1B1"/>
    </vehicle>
    <vehicle id="120" type="bus" depart="326.28">
        <route edges="E0E1 E1E2 E2D2 D2C2 C2C1 C1C0 C0B0"/>
    </vehicle>
    <vehicle id="121" type="bus" depart="328.59">
        <route edges="E2E1 E1D1 D1E1 E1D1 D1C1 C1C2"/>
    </vehicle>
    <vehicle id="122" type="car" depart="331.02">
        <route edges="A0A1 A1A2 A2B2 B2A2 A2A1 A1A0 A0B0"/>
    </vehicle>
    <vehicle id="123" type="car" depart="333.26">
        <route edges="B1B2 B2C2 C2D2"/>
    </vehicle>
    <vehicle id="124" type="bus" depart="334.76">
        <route edges="C1D1 D1E1 E1D1"/>
    </vehicle>
    <vehicle id="125" type="bus" depart="336.40">
        <route edges="B1A1 A1A2"/>
    </vehicle>
    <vehicle id="126" type="bus" depart="338.90">
        <route edges="B0A0 A0A1"/>
    </vehicle>
    <vehicle id="127" type="bus" depart="341.13">
        <route edges="B0C0 C0C1 C1C2 C2D2"/>
    </vehicle>
    <vehicle id="128" type="bus" depart="343.34">
        <route edges="D1C1 C1B1"/>
    </vehicle>
    <vehicle id="129" type="car" depart="345.32">
        <route edges="D0C0 C0B0 B0A0"/>
    </vehicle>
    <vehicle id="130" type="car" depart="347.52">
        <route edges="E2D2 D2C2 C2C1 C1C2 C2D2 D2C2 C2C1"/>
    </vehicle>
    <vehicle id="131" type="bus" depart="349.87">
        <route edges="B1A1 A1A2"/>
    </vehicle>
    <vehicle id="132" type="truck" depart="351.69">
        <route edges="C0C1 C1C2"/>
    </vehicle>
    <vehicle id="133" type="bus" depart="353.98">
        <route edges="A0A1 A1A2 A2B2 B2A2 A2A1 A1A0 A0B0"/>
    </vehicle>
    <vehicle id="134" type="car" depart="356.10">
        <route edges="B1B0 B0B1"/>
    </vehicle>
    <vehicle id="135" type="truck" depart="358.51">
        <route edges="B1B0 B0B1"/>
    </vehicle>
    <vehicle id="136" type="bus" depart="360.17">
        <route edges="D2C2 C2B2 B2A2 A2A1 A1A0"/>
    </vehicle>
    <vehicle id="137" type="truck" depart="362.10">
        <route edges="D0D1 D1D2 D2E2 E2E1 E1E0 E0D0"/>
    </vehicle>
    <vehicle id="138" type="truck" depart="364.34">
        <route edges="C2D2 D2E2 E2E1"/>
    </vehicle>
    <vehicle id="139" type="bus" depart="365.41">
        <route edges="C0C1 C1C2"/>
    </vehicle>
    <vehicle id="140" type="car" depart="366.43">
        <route edges="B2C2 C2C1 C1C0 C0B0"/>
    </vehicle>
    <vehicle id="141" type="truck" depart="367.25">
        <route edges="E2E1 E1E2 E2D2 D2C2 C2B2 B2B1"/>
    </vehicle>
    <vehicle id="142" type="car" depart="368.45">
        <route edges="C0C1 C1C2"/>
    </vehicle>
    <vehicle id="143" type="truck" depart="369.02">
        <route edges="B2B1 B1B0 B0C0 C0D0"/>
    </vehicle>
    <vehicle id="144" type="bus" depart="369.70">
        <route edges="A0A1 A1A2 A2B2 B2A2 A2A1 A1A0 A0B0"/>
    </vehicle>
    <vehicle id="145" type="truck" depart="370.79">
        <route edges="B2B1 B1B0 B0B1 B1A1 A1A2"/>
    </vehicle>
    <vehicle id="146" type="car" depart="372.22">
        <route edges="D0C0 C0B0 B0C0 C0D0 D0E0 E0E1"/>
    </vehicle>
    <vehicle id="147" type="bus" depart="373.60">
        <route edges="C1C0 C0B0 B0A0 A0A1 A1A2 A2B2 B2C2"/>
    </vehicle>
    <vehicle id="148" type="car" depart="374.60">
        <route edges="D0E0 E0E1 E1E2 E2D2 D2C2 C2C1 C1D1"/>
    </vehicle>
    <vehicle id="149" type="car" depart="375.57">
        <route edges="B2B1 B1A1 A1A0 A0B0"/>
    </vehicle>
    <vehicle id="150" type="car" depart="376.31">
        <route edges="C2D2 D2C2 C2B2 B2A2"/>
    </vehicle>
    <vehicle id="151" type="truck" depart="377.08">
        <route edges="D0C0 C0B0 B0A0"/>
    </vehicle>
    <vehicle id="152" type="bus" depart="377.90">
        <route edges="E2D2 D2C2 C2C1 C1D1"/>
    </vehicle>
    <vehicle id="153" type="car" depart="379.10">
        <route edges="A1A0 A0B0"/>
    </vehicle>
    <vehicle id="154" type="truck" depart="379.65">
        <route edges="B2A2 A2A1 A1A2 A2B2"/>
    </vehicle>
    <vehicle id="155" type="car" depart="381.01">
        <route edges="B2C2 C2C1 C1C0 C0B0"/>
    </vehicle>
    <vehicle id="156" type="bus" depart="382.46">
        <route edges="A1A2 A2B2 B2B1 B1B2"/>
    </vehicle>
    <vehicle id="157" type="car" depart="383.68">
        <route edges="D1E1 E1E0 E0D0"/>
    </vehicle>
    <vehicle id="158" type="truck" depart="384.65">
        <route edges="B0C0 C0C1 C1C2 C2D2"/>
    </vehicle>
    <vehicle id="159" type="truck" depart="385.87">
        <route edges="C1D1 D1D2 D2C2 C2B2"/>
    </vehicle>
    <vehicle id="160" type="bus" depart="386.84">
        <route edges="C1D1 D1E1 E1D1"/>
    </vehicle>
    <vehicle id="161" type="bus" depart="387.73">
        <route edges="A1B1 B1B2 B2B1 B1B0"/>
    </vehicle>
    <vehicle id="162" type="truck" depart="388.95">
        <route edges="C2B2 B2B1"/>
    </vehicle>
    <vehicle id="163" type="truck" depart="390.10">
        <route edges="D0D1 D1C1 C1C0 C0B0 B0A0 A0A1 A1A2"/>
    </vehicle>
    <vehicle id="164" type="car" depart="391.23">
        <route edges="C1C0 C0B0 B0B1 B1A1 A1A2"/>
    </vehicle>
    <vehicle id="165" type="car" depart="392.20">
        <route edges="B0C0 C0D0 D0E0 E0E1 E1E0 E0D0 D0E0"/>
    </vehicle>
    <vehicle id="166" type="car" depart="393.17">
        <route edges="C2B2 B2A2 A2A1 A1A0 A0B0 B0B1"/>
    </vehicle>
    <vehicle id="167" type="bus" depart="394.17">
        <route edges="C2D2 D2E2 E2E1"/>
    </vehicle>
    <vehicle id="168" type="truck" depart="395.50">
        <route edges="B1C1 C1C2 C2D2 D2D1"/>
    </vehicle>
    <vehicle id="169" type="car" depart="396.73">
        <route edges="B2A2 A2A1 A1A2 A2B2"/>
    </vehicle>
    <vehicle id="170" type="bus" depart="397.54">
        <route edges="C2B2 B2C2 C2C1"/>
    </vehicle>
    <vehicle id="171" type="car" depart="398.06">
        <route edges="E2E1 E1D1 D1E1 E1D1 D1C1 C1C2"/>
    </vehicle>
    <vehicle id="172" type="car" depart="399.19">
        <route edges="C0B0 B0C0 C0D0 D0C0 C0B0 B0B1"/>
    </vehicle>
    <vehicle id="173" type="bus" depart="399.71">
        <route edges="D2E2 E2E1 E1E2 E2D2 D2C2 C2C1 C1D1"/>
    </vehicle>
    <vehicle id="174" type="truck" depart="400.22">
        <route edges="A1B1 B1B2 B2B1 B1B0"/>
    </vehicle>
    <vehicle id="175" type="truck" depart="401.21">
        <route edges="E2D2 D2C2 C2C1 C1C2 C2D2 D2C2 C2C1"/>
    </vehicle>
    <vehicle id="176" type="car" depart="402.50">
        <route edges="C1D1 D1D2 D2C2 C2B2"/>
    </vehicle>
    <vehicle id="177" type="bus" depart="403.48">
        <route edges="A0A1 A1A2 A2B2 B2A2 A2A1 A1A0 A0B0"/>
    </vehicle>
    <vehicle id="178" type="bus" depart="404.51">
        <route edges="B2C2 C2D2 D2E2 E2E1 E1E0 E0D0"/>
    </vehicle>
    <vehicle id="179" type="truck" depart="405.73">
        <route edges="E2E1 E1E2 E2D2 D2C2 C2B2 B2B1"/>
    </vehicle>
    <vehicle id="180" type="car" depart="406.84">
        <route edges="B1C1 C1D1 D1E1"/>
    </vehicle>
    <vehicle id="181" type="truck" depart="407.53">
        <route edges="C1B1 B1A1 A1B1 B1C1 C1C0"/>
    </vehicle>
    <vehicle id="182" type="car" depart="408.93">
        <route edges="C1C2 C2C1 C1C0 C0C1 C1B1"/>
    </vehicle>
    <vehicle id="183" type="truck" depart="410.20">
        <route edges="A0A1 A1A2"/>
    </vehicle>
    <vehicle id="184" type="bus" depart="410.93">
        <route edges="A1A2 A2B2 B2B1 B1C1 C1D1 D1E1 E1E0"/>
    </vehicle>
    <vehicle id="185" type="car" depart="412.41">
        <route edges="C1C0 C0B0 B0A0 A0A1 A1A2 A2B2 B2C2"/>
    </vehicle>
    <vehicle id="186" type="truck" depart="413.37">
        <route edges="C1B1 B1A1 A1B1 B1C1 C1C0"/>
    </vehicle>
    <vehicle id="187" type="truck" depart="414.10">
        <route edges="E0D0 D0D1"/>
    </vehicle>
    <vehicle id="188" type="bus" depart="415.35">
        <route edges="B2B1 B1B0 B0C0 C0D0"/>
    </vehicle>
    <vehicle id="189" type="truck" depart="416.83">
        <route edges="C1D1 D1E1 E1D1"/>
    </vehicle>
    <vehicle id="190" type="bus" depart="417.41">
        <route edges="E0E1 E1E2 E2D2 D2C2 C2C1 C1C0 C0B0"/>
    </vehicle>
    <vehicle id="191" type="truck" depart="418.70">
        <route edges="A2B2 B2C2 C2D2 D2E2 E2E1 E1E0 E0D0"/>
    </vehicle>
    <vehicle id="192" type="car" depart="419.46">
        <route edges="C2C1 C1B1 B1B2 B2A2"/>
    </vehicle>
    <vehicle id="193" type="bus" depart="420.88">
        <route edges="D1D0 D0C0 C0D0 D0E0 E0E1"/>
    </vehicle>
    <vehicle id="194" type="truck" depart="422.14">
        <route edges="D1D2 D2D1 D1C1"/>
    </vehicle>
    <vehicle id="195" type="car" depart="423.53">
        <route edges="B2B1 B1B0 B0B1 B1A1 A1A2"/>
    </vehicle>
    <vehicle id="196" type="truck" depart="424.46">
        <route edges="A1B1 B1B2 B2B1 B1B0"/>
    </vehicle>
    <vehicle id="197" type="car" depart="425.82">
        <route edges="D1D0 D0C0 C0D0 D0E0 E0E1"/>
    </vehicle>
    <vehicle id="198" type="car" depart="427.16">
        <route edges="C2D2 D2C2 C2B2 B2A2"/>
    </vehicle>
    <vehicle id="199" type="truck" depart="428.01">
        <route edges="C1C0 C0D0 D0E0 E0E1 E1D1 D1E1"/>
    </vehicle>
    <vehicle id="200" type="bus" depart="428.55">
        <route edges="E0D0 D0C0 C0B0 B0A0"/>
    </vehicle>
    <vehicle id="201" type="bus" depart="429.41">
        <route edges="B2C2 C2D2 D2E2 E2E1 E1E0 E0D0"/>
    </vehicle>
    <vehicle id="202" type="truck" depart="430.17">
        <route edges="C1C0 C0D0 D0E0 E0E1 E1D1 D1E1"/>
    </vehicle>
    <vehicle id="203" type="truck" depart="430.93">
        <route edges="C2B2 B2A2 A2A1 A1A0 A0B0 B0B1"/>
    </vehicle>
    <vehicle id="204" type="truck" depart="432.21">
        <route edges="C1D1 D1D2 D2C2 C2B2"/>
    </vehicle>
    <vehicle id="205" type="bus" depart="433.52">
        <route edges="C1C0 C0B0 B0A0 A0A1 A1A2 A2B2 B2C2"/>
    </vehicle>
    <vehicle id="206" type="car" depart="434.19">
        <route edges="B1C1 C1D1 D1E1"/>
    </vehicle>
    <vehicle id="207" type="bus" depart="435.08">
        <route edges="D2E2 E2E1 E1E2 E2D2 D2C2 C2C1 C1D1"/>
    </vehicle>
    <vehicle id="208" type="bus" depart="436.30">
        <route edges="C1D1 D1E1 E1D1"/>
    </vehicle>
    <vehicle id="209" type="bus" depart="436.83">
        <route edges="B1C1 C1D1 D1E1"/>
    </vehicle>
    <vehicle id="210" type="bus" depart="437.46">
        <route edges="A1A2 A2B2 B2B1 B1B2"/>
    </vehicle>
    <vehicle id="211" type="truck" depart="438.76">
        <route edges="E0D0 D0C0 C0B0 B0A0"/>
    </vehicle>
    <vehicle id="212" type="bus" depart="440.03">
        <route edges="E2E1 E1E2 E2D2 D2C2 C2B2 B2B1"/>
    </vehicle>
    <vehicle id="213" type="bus" depart="441.25">
        <route edges="B0B1 B1B0 B0B1 B1C1 C1D1"/>
    </vehicle>
    <vehicle id="214" type="truck" depart="442.56">
        <route edges="D0C0 C0B0 B0C0 C0D0 D0E0 E0E1"/>
    </vehicle>
    <vehicle id="215" type="car" depart="443.68">
        <route edges="C0B0 B0C0"/>
    </vehicle>
    <vehicle id="216" type="car" depart="444.39">
        <route edges="C2C1 C1B1 B1B2 B2A2"/>
    </vehicle>
    <vehicle id="217" type="bus" depart="445.26">
        <route edges="C2C1 C1C2"/>
    </vehicle>
    <vehicle id="218" type="car" depart="446.55">
        <route edges="D1D2 D2D1 D1C1"/>
    </vehicle>
    <vehicle id="219" type="bus" depart="447.14">
        <route edges="D1D2 D2D1 D1C1"/>
    </vehicle>
    <vehicle id="220" type="truck" depart="447.69">
        <route edges="A1A0 A0B0 B0C0 C0D0"/>
    </vehicle>
    <vehicle id="221" type="bus" depart="448.33">
        <route edges="E2E1 E1E0"/>
    </vehicle>
    <vehicle id="222" type="car" depart="449.60">
        <route edges="D0E0 E0E1 E1D1"/>
    </vehicle>
    <vehicle id="223" type="car" depart="450.90">
        <route edges="D1D0 D0C0 C0B0 B0C0 C0C1 C1C2 C2D2"/>
    </vehicle>
    <vehicle id="224" type="bus" depart="451.73">
        <route edges="E1D1 D1C1 C1D1 D1C1 C1B1"/>
    </vehicle>
    <vehicle id="225" type="bus" depart="453.09">
        <route edges="C2B2 B2C2 C2C1"/>
    </vehicle>
    <vehicle id="226" type="car" depart="453.93">
        <route edges="D1D0 D0C0 C0B0 B0C0 C0C1 C1C2 C2D2"/>
    </vehicle>
    <vehicle id="227" type="bus" depart="454.72">
        <route edges="A0A1 A1A2 A2B2 B2A2 A2A1 A1A0 A0B0"/>
    </vehicle>
    <vehicle id="228" type="bus" depart="455.51">
        <route edges="E0D0 D0C0 C0B0 B0B1"/>
    </vehicle>
    <vehicle id="229" type="truck" depart="456.71">
        <route edges="D0E0 E0E1"/>
    </vehicle>
    <vehicle id="230" type="bus" depart="457.34">
        <route edges="C0D0 D0D1 D1C1 C1C2"/>
    </vehicle>
    <vehicle id="231" type="car" depart="458.34">
        <route edges="A0A1 A1A2 A2B2 B2A2"/>
    </vehicle>
    <vehicle id="232" type="bus" depart="459.12">
        <route edges="D1D0 D0C0 C0D0 D0E0 E0E1"/>
    </vehicle>
    <vehicle id="233" type="bus" depart="460.30">
        <route edges="C0D0 D0D1 D1C1 C1C2"/>
    </vehicle>
    <vehicle id="234" type="bus" depart="461.73">
        <route edges="A0B0 B0C0 C0B0 B0A0 A0A1"/>
    </vehicle>
    <vehicle id="235" type="car" depart="462.33">
        <route edges="B2C2 C2D2 D2E2 E2E1 E1E0 E0D0"/>
    </vehicle>
    <vehicle id="236" type="bus" depart="463.76">
        <route edges="D2E2 E2E1 E1E2 E2D2 D2C2 C2C1 C1D1"/>
    </vehicle>
    <vehicle id="237" type="bus" depart="464.85">
        <route edges="A1A2 A2B2 B2B1 B1B2"/>
    </vehicle>
    <vehicle id="238" type="bus" depart="465.36">
        <route edges="B2B1 B1B0 B0B1 B1A1 A1A2"/>
    </vehicle>
    <vehicle id="239" type="truck" depart="466.26">
        <route edges="C0B0 B0C0"/>
    </vehicle>
    <vehicle id="240" type="truck" depart="467.08">
        <route edges="C2B2 B2C2 C2C1"/>
    </vehicle>
    <vehicle id="241" type="truck" depart="468.32">
        <route edges="C1C2 C2D2 D2E2 E2E1 E1D1"/>
    </vehicle>
    <vehicle id="242" type="truck" depart="469.24">
        <route edges="C1D1 D1C1"/>
    </vehicle>
    <vehicle id="243" type="bus" depart="470.62">
        <route edges="B2B1 B1B0 B0C0 C0D0"/>
    </vehicle>
    <vehicle id="244" type="bus" depart="471.68">
        <route edges="B2B1 B1A1 A1A0 A0B0"/>
    </vehicle>
    <vehicle id="245" type="truck" depart="472.38">
        <route edges="B2A2 A2A1 A1A0"/>
    </vehicle>
    <vehicle id="246" type="truck" depart="472.95">
        <route edges="A1A2 A2B2 B2B1 B1B2"/>
    </vehicle>
    <vehicle id="247" type="bus" depart="474.41">
        <route edges="C1D1 D1C1"/>
    </vehicle>
    <vehicle id="248" type="truck" depart="475.16">
        <route edges="C0D0 D0D1 D1C1 C1C2"/>
    </vehicle>
    <vehicle id="249" type="bus" depart="476.14">
        <route edges="A1A0 A0B0"/>
    </vehicle>
    <vehicle id="250" type="truck" depart="477.28">
        <route edges="B2A2 A2A1 A1A2 A2B2"/>
    </vehicle>
    <vehicle id="251" type="truck" depart="477.83">
        <route edges="E0E1 E1E2 E2D2 D2C2 C2C1 C1C0 C0B0"/>
    </vehicle>
    <vehicle id="252" type="bus" depart="478.83">
        <route edges="A1A0 A0B0 B0C0 C0D0"/>
    </vehicle>
    <vehicle id="253" type="car" depart="480.31">
        <route edges="A1A2 A2B2 B2B1 B1C1 C1D1 D1E1 E1E0"/>
    </vehicle>
    <vehicle id="254" type="bus" depart="480.90">
        <route edges="C2C1 C1B1 B1B2 B2A2"/>
    </vehicle>
    <vehicle id="255" type="bus" depart="482.19">
        <route edges="A1B1 B1B2 B2B1 B1B0"/>
    </vehicle>
    <vehicle id="256" type="truck" depart="483.26">
        <route edges="C1D1 D1D2 D2C2 C2B2"/>
    </vehicle>
    <vehicle id="257" type="bus" depart="483.88">
        <route edges="A2B2 B2C2 C2D2 D2E2 E2E1 E1E0 E0D0"/>
    </vehicle>
    <vehicle id="258" type="car" depart="484.46">
        <route edges="B2C2 C2C1 C1C0 C0B0"/>
    </vehicle>
    <vehicle id="259" type="bus" depart="485.68">
        <route edges="B1C1 C1C2 C2D2 D2D1"/>
    </vehicle>
    <vehicle id="260" type="car" depart="487.07">
        <route edges="C1C0 C0B0 B0B1 B1A1 A1A2"/>
    </vehicle>
    <vehicle id="261" type="truck" depart="488.12">
        <route edges="B1C1 C1D1 D1E1"/>
    </vehicle>
    <vehicle id="262" type="car" depart="488.78">
        <route edges="B2B1 B1B0 B0C0 C0D0"/>
    </vehicle>
    <vehicle id="263" type="car" depart="489.86">
        <route edges="C0B0 B0C0"/>
    </vehicle>
    <vehicle id="264" type="bus" depart="491.26">