<?xml version="1.0" ?>
<routes>
    <vType id="car" accel="2.6" decel="4.5" sigma="0.5" length="5" maxSpeed="70"/>
    <vType id="bus" accel="1.2" decel="4.0" sigma="0.5" length="12" maxSpeed="50"/>
    <vType id="truck" accel="1.0" decel="4.0" sigma="0.5" length="8" maxSpeed="60"/>
    <vehicle id="0" type="bus" depart="0.00">
        <route edges="C2D2 D2D1 D1D0 D0D1 D1D0"/>
    </vehicle>
    <vehicle id="1" type="bus" depart="3.80">
        <route edges="A1A0 A0B0 B0B1 B1B2 B2B1"/>
    </vehicle>
    <vehicle id="2" type="bus" depart="7.39">
        <route edges="C1C0 C0D0 D0E0"/>
    </vehicle>
    <vehicle id="3" type="car" depart="11.49">
        <route edges="A1A2 A2B2 B2C2 C2D2 D2E2 E2E1 E1D1"/>
    </vehicle>
    <vehicle id="4" type="truck" depart="15.82">
        <route edges="A1A2 A2B2 B2C2 C2D2 D2E2 E2E1 E1D1"/>
    </vehicle>
    <vehicle id="5" type="truck" depart="19.91">
        <route edges="D1D2 D2E2 E2E1 E1D1 D1C1"/>
    </vehicle>
    <vehicle id="6" type="car" depart="24.14">
        <route edges="A1A0 A0B0 B0B1 B1B2 B2B1"/>
    </vehicle>
    <vehicle id="7" type="truck" depart="28.01">
        <route edges="D0E0 E0E1 E1E2 E2D2 D2C2"/>
    </vehicle>
    <vehicle id="8" type="bus" depart="31.68">
        <route edges="E0E1 E1E2 E2D2 D2D1 D1D0 D0C0 C0C1"/>
    </vehicle>
    <vehicle id="9" type="car" depart="36.05">
        <route edges="B1B0 B0C0 C0C1 C1C0 C0B0 B0A0"/>
    </vehicle>
    <vehicle id="10" type="car" depart="40.23">
        <route edges="D1C1 C1D1 D1C1 C1B1 B1A1 A1A2 A2B2"/>
    </vehicle>
    <vehicle id="11" type="bus" depart="44.18">
        <route edges="E1E0 E0D0 D0E0 E0E1"/>
    </vehicle>
    <vehicle id="12" type="truck" depart="48.06">
        <route edges="B0C0 C0C1"/>
    </vehicle>
    <vehicle id="13" type="truck" depart="51.86">
        <route edges="D1C1 C1D1 D1C1 C1B1 B1A1 A1A2 A2B2"/>
    </vehicle>
    <vehicle id="14" type="truck" depart="55.47">
        <route edges="D1D0 D0E0 E0E1 E1E2 E2D2 D2C2"/>
    </vehicle>
    <vehicle id="15" type="car" depart="58.98">
        <route edges="D2E2 E2E1 E1E0 E0D0"/>
    </vehicle>
    <vehicle id="16" type="truck" depart="62.91">
        <route edges="B2B1 B1A1"/>
    </vehicle>
    <vehicle id="17" type="bus" depart="67.00">
        <route edges="C0D0 D0E0 E0E1 E1E2 E2D2 D2C2 C2B2"/>
    </vehicle>
    <vehicle id="18" type="car" depart="70.81">
        <route edges="E2D2 D2E2 E2E1 E1D1"/>
    </vehicle>
    <vehicle id="19" type="car" depart="74.77">
        <route edges="B2A2 A2A1 A1A0 A0B0 B0B1 B1A1"/>
    </vehicle>
    <vehicle id="20" type="bus" depart="78.40">
        <route edges="E0E1 E1E0 E0D0"/>
    </vehicle>
    <vehicle id="21" type="car" depart="82.63">
        <route edges="A0B0 B0C0 C0D0"/>
    </vehicle>
    <vehicle id="22" type="car" depart="86.97">
        <route edges="D1C1 C1D1 D1C1 C1B1 B1A1 A1A2 A2B2"/>
    </vehicle>
    <vehicle id="23" type="bus" depart="90.88">
        <route edges="E2D2 D2C2 C2B2 B2B1 B1B2"/>
    </vehicle>
    <vehicle id="24" type="bus" depart="95.00">
        <route edges="A1A0 A0B0 B0A0 A0A1 A1A0 A0B0"/>
    </vehicle>
    <vehicle id="25" type="car" depart="99.38">
        <route edges="A0A1 A1A2 A2B2 B2A2 A2A1 A1B1 B1C1"/>
    </vehicle>
    <vehicle id="26" type="car" depart="103.12">
        <route edges="B1C1 C1D1 D1D2 D2C2 C2B2"/>
    </vehicle>
    <vehicle id="27" type="truck" depart="107.14">
        <route edges="C2D2 D2E2 E2E1 E1E0 E0D0 D0C0"/>
    </vehicle>
    <vehicle id="28" type="car" depart="111.48">
        <route edges="C1D1 D1D2 D2E2 E2E1 E1D1 D1E1"/>
    </vehicle>
    <vehicle id="29" type="bus" depart="115.85">
        <route edges="E1E2 E2D2 D2C2 C2C1"/>
    </vehicle>
    <vehicle id="30" type="truck" depart="119.56">
        <route edges="C2C1 C1C0 C0C1"/>
    </vehicle>
    <vehicle id="31" type="truck" depart="123.45">
        <route edges="E1E2 E2D2 D2C2 C2C1"/>
    </vehicle>
    <vehicle id="32" type="car" depart="127.24">
        <route edges="A0A1 A1A2 A2B2 B2A2 A2A1 A1B1 B1C1"/>
    </vehicle>
    <vehicle id="33" type="bus" depart="131.60">
        <route edges="A1A0 A0B0 B0A0 A0A1 A1A0 A0B0"/>
    </vehicle>
    <vehicle id="34" type="truck" depart="135.28">
        <route edges="B0A0 A0A1 A1B1 B1C1 C1D1 D1E1 E1E0"/>
    </vehicle>
    <vehicle id="35" type="truck" depart="139.15">
        <route edges="D2E2 E2E1 E1E2 E2D2 D2C2 C2D2"/>
    </vehicle>
    <vehicle id="36" type="truck" depart="143.02">
        <route edges="E2E1 E1E0 E0D0 D0E0 E0E1"/>
    </vehicle>
    <vehicle id="37" type="car" depart="147.17">
        <route edges="A2B2 B2A2 A2A1"/>
    </vehicle>
    <vehicle id="38" type="bus" depart="151.36">
        <route edges="D2D1 D1C1 C1D1"/>
    </vehicle>
    <vehicle id="39" type="bus" depart="155.63">
        <route edges="D2E2 E2E1 E1E2 E2D2 D2C2 C2D2"/>
    </vehicle>
    <vehicle id="40" type="truck" depart="159.66">
        <route edges="B2B1 B1B0 B0A0"/>
    </vehicle>
    <vehicle id="41" type="bus" depart="163.19">
        <route edges="C0C1 C1C0 C0B0 B0B1 B1B2 B2C2 C2D2"/>
    </vehicle>
    <vehicle id="42" type="bus" depart="166.80">
        <route edges="C2D2 D2C2 C2C1"/>
    </vehicle>
    <vehicle id="43" type="truck" depart="171.11">
        <route edges="D0E0 E0E1 E1D1 D1D2"/>
    </vehicle>
    <vehicle id="44" type="car" depart="175.32">
        <route edges="A1A0 A0B0 B0B1 B1B2 B2B1"/>
    </vehicle>
    <vehicle id="45" type="truck" depart="179.30">
        <route edges="C2B2 B2A2 A2A1 A1B1 B1B2 B2C2"/>
    </vehicle>
    <vehicle id="46" type="bus" depart="183.44">
        <route edges="C1C0 C0D0 D0E0"/>
    </vehicle>
    <vehicle id="47" type="bus" depart="185.51">
        <route edges="C2D2 D2C2 C2C1"/>
    </vehicle>
    <vehicle id="48" type="car" depart="187.14">
        <route edges="E1D1 D1C1"/>
    </vehicle>
    <vehicle id="49" type="truck" depart="188.85">
        <route edges="C0B0 B0A0"/>
    </vehicle>
    <vehicle id="50" type="car" depart="191.33">
        <route edges="A0B0 B0C0 C0B0 B0A0 A0A1 A1A0 A0B0"/>
    </vehicle>
    <vehicle id="51" type="truck" depart="193.30">
        <route edges="B1B2 B2C2 C2D2 D2C2 C2C1 C1B1 B1B2"/>
    </vehicle>
    <vehicle id="52" type="car" depart="195.01">
        <route edges="C0B0 B0B1 B1A1 A1A2 A2B2 B2A2"/>
    </vehicle>
    <vehicle id="53" type="car" depart="196.61">
        <route edges="E0D0 D0C0 C0B0 B0C0 C0D0 D0E0"/>
    </vehicle>
    <vehicle id="54" type="bus" depart="198.51">
        <route edges="D0E0 E0E1 E1D1 D1D2"/>
    </vehicle>
    <vehicle id="55" type="truck" depart="200.64">
        <route edges="E2D2 D2E2 E2E1 E1D1"/>
    </vehicle>
    <vehicle id="56" type="truck" depart="202.90">
        <route edges="E1E0 E0D0 D0E0 E0E1 E1E0"/>
    </vehicle>
    <vehicle id="57" type="truck" depart="204.47">
        <route edges="A1A0 A0B0 B0A0 A0A1 A1A0 A0B0"/>
    </vehicle>
    <vehicle id="58" type="truck" depart="206.46">
        <route edges="C1B1 B1B2"/>
    </vehicle>
    <vehicle id="59" type="car" depart="208.03">
        <route edges="E1E2 E2D2 D2C2 C2B2 B2A2"/>
    </vehicle>
    <vehicle id="60" type="truck" depart="209.99">
        <route edges="C2D2 D2D1 D1D0 D0D1 D1D0"/>
    </vehicle>
    <vehicle id="61" type="car" depart="212.00">
        <route edges="A0B0 B0C0 C0B0 B0A0 A0A1 A1A0 A0B0"/>
    </vehicle>
    <vehicle id="62" type="truck" depart="213.96">
        <route edges="D1D0 D0C0 C0C1 C1C2 C2C1 C1C2 C2D2"/>
    </vehicle>
    <vehicle id="63" type="bus" depart="216.20">
        <route edges="E1D1 D1C1"/>
    </vehicle>
    <vehicle id="64" type="bus" depart="218.17">
        <route edges="C2D2 D2D1 D1D0 D0D1 D1D0"/>
    </vehicle>
    <vehicle id="65" type="bus" depart="220.19">
        <route edges="D1C1 C1D1 D1C1 C1B1 B1A1 A1A2 A2B2"/>
    </vehicle>
    <vehicle id="66" type="bus" depart="222.57">
        <route edges="C1D1 D1D2 D2E2 E2E1 E1D1 D1E1"/>
    </vehicle>
    <vehicle id="67" type="car" depart="224.21">
        <route edges="B0A0 A0A1 A1B1 B1C1 C1D1 D1E1 E1E0"/>
    </vehicle>
    <vehicle id="68" type="truck" depart="226.09">
        <route edges="C0D0 D0E0 E0E1 E1E2 E2D2 D2C2 C2B2"/>
    </vehicle>
    <vehicle id="69" type="truck" depart="227.69">
        <route edges="E0D0 D0C0 C0B0 B0B1 B1B2 B2C2"/>
    </vehicle>
    <vehicle id="70" type="truck" depart="229.81">
        <route edges="E0E1 E1E0 E0D0"/>
    </vehicle>
    <vehicle id="71" type="bus" depart="232.02">
        <route edges="C0C1 C1C0 C0B0 B0B1 B1A1"/>
    </vehicle>
    <vehicle id="72" type="car" depart="233.53">
        <route edges="D1D0 D0E0 E0E1 E1E2 E2D2 D2C2"/>
    </vehicle>
    <vehicle id="73" type="bus" depart="235.64">
        <route edges="C0B0 B0A0"/>
    </vehicle>
    <vehicle id="74" type="bus" depart="237.86">
        <route edges="B1A1 A1A0 A0B0 B0C0 C0C1"/>
    </vehicle>
    <vehicle id="75" type="truck" depart="239.63">
        <route edges="E1E0 E0D0 D0E0 E0E1 E1E0"/>
    </vehicle>
    <vehicle id="76" type="car" depart="241.36">
        <route edges="A1B1 B1C1 C1C2 C2D2 D2D1 D1D0 D0C0"/>
    </vehicle>
    <vehicle id="77" type="truck" depart="243.83">
        <route edges="E2E1 E1E0 E0D0 D0E0 E0E1"/>
    </vehicle>
    <vehicle id="78" type="car" depart="245.42">
        <route edges="D1D2 D2E2 E2E1 E1D1 D1C1"/>
    </vehicle>
    <vehicle id="79" type="bus" depart="247.61">
        <route edges="C1B1 B1A1"/>
    </vehicle>
    <vehicle id="80" type="bus" depart="249.28">
        <route edges="D1D0 D0E0 E0E1 E1E2 E2D2 D2C2"/>
    </vehicle>
    <vehicle id="81" type="car" depart="251.55">
        <route edges="B1B0 B0A0 A0A1"/>
    </vehicle>
    <vehicle id="82" type="bus" depart="253.62">
        <route edges="B1B0 B0B1 B1B2"/>
    </vehicle>
    <vehicle id="83" type="car" depart="255.42">
        <route edges="C2C1 C1C2"/>
    </vehicle>
    <vehicle id="84" type="car" depart="257.02">
        <route edges="C2D2 D2E2 E2E1 E1E0 E0D0 D0C0"/>
    </vehicle>
    <vehicle id="85" type="truck" depart="258.86">
        <route edges="B1C1 C1D1 D1D2 D2C2 C2B2"/>
    </vehicle>
    <vehicle id="86" type="car" depart="260.60">
        <route edges="B0A0 A0A1 A1A2 A2B2 B2A2 A2A1"/>
    </vehicle>
    <vehicle id="87" type="bus" depart="262.58">
        <route edges="B2C2 C2D2 D2E2 E2E1"/>
    </vehicle>
    <vehicle id="88" type="bus" depart="265.08">
        <route edges="B2B1 B1A1"/>
    </vehicle>
    <vehicle id="89" type="bus" depart="266.94">
        <route edges="D1D2 D2E2 E2E1 E1D1 D1C1"/>
    </vehicle>
    <vehicle id="90" type="bus" depart="269.38">
        <route edges="C2C1 C1D1 D1E1 E1D1"/>
    </vehicle>
    <vehicle id="91" type="car" depart="270.93">
        <route edges="E0D0 D0D1 D1E1 E1D1"/>
    </vehicle>
    <vehicle id="92" type="car" depart="272.54">
        <route edges="D0C0 C0C1 C1D1 D1D2 D2C2 C2B2 B2A2"/>
    </vehicle>
    <vehicle id="93" type="car" depart="275.01">
        <route edges="C0C1 C1C0 C0B0 B0B1 B1A1"/>
    </vehicle>
    <vehicle id="94" type="car" depart="277.26">
        <route edges="B2A2 A2A1 A1A0 A0B0 B0C0 C0D0"/>
    </vehicle>
    <vehicle id="95" type="truck" depart="279.75">
        <route edges="A1B1 B1C1 C1C2 C2D2 D2D1 D1D0 D0C0"/>
    </vehicle>
    <vehicle id="96" type="truck" depart="282.15">
        <route edges="B1C1 C1D1 D1D2 D2C2 C2B2"/>
    </vehicle>
    <vehicle id="97" type="truck" depart="284.06">
        <route edges="C1C2 C2B2 B2B1 B1B0 B0B1"/>
    </vehicle>
    <vehicle id="98" type="truck" depart="286.45">
        <route edges="A0B0 B0C0 C0D0"/>
    </vehicle>
    <vehicle id="99" type="bus" depart="288.49">
        <route edges="D1D2 D2C2 C2B2 B2A2 A2A1 A1A2 A2B2"/>
    </vehicle>
    <vehicle id="100" type="bus" depart="290.62">
        <route edges="C0D0 D0E0 E0E1 E1E2 E2D2 D2C2 C2B2"/>
    </vehicle>
    <vehicle id="101" type="car" depart="292.90">
        <route edges="E2D2 D2C2 C2B2 B2B1 B1B2"/>
    </vehicle>
    <vehicle id="102" type="truck" depart="295.06">
        <route edges="B2A2 A2A1 A1A0 A0B0 B0C0 C0D0"/>
    </vehicle>
    <vehicle id="103" type="car" depart="296.66">
        <route edges="D1D2 D2E2 E2E1 E1D1 D1C1"/>
    </vehicle>
    <vehicle id="104" type="car" depart="298.82">
        <route edges="A2B2 B2A2 A2A1"/>
    </vehicle>
    <vehicle id="105" type="bus" depart="301.22">
        <route edges="B2A2 A2A1 A1A0 A0B0 B0B1 B1A1"/>
    </vehicle>
    <vehicle id="106" type="truck" depart="302.84">
        <route edges="D0C0 C0B0 B0A0 A0A1 A1A0"/>
    </vehicle>
    <vehicle id="107" type="car" depart="304.86">
        <route edges="D0E0 E0E1 E1D1 D1D2"/>
    </vehicle>
    <vehicle id="108" type="truck" depart="307.33">
        <route edges="D0E0 E0E1 E1D1 D1D2"/>
    </vehicle>
    <vehicle id="109" type="car" depart="308.90">
        <route edges="D0C0 C0B0 B0A0 A0A1 A1A0"/>
    </vehicle>
    <vehicle id="110" type="car" depart="310.77">
        <route edges="C0B0 B0A0"/>
    </vehicle>
    <vehicle id="111" type="bus" depart="312.97">
        <route edges="C2D2 D2C2 C2C1"/>
    </vehicle>
    <vehicle id="112" type="truck" depart="314.92">
        <route edges="A2A1 A1B1 B1B0 B0C0 C0C1 C1D1"/>
    </vehicle>
    <vehicle id="113" type="bus" depart="316.42">
        <route edges="C0D0 D0E0 E0E1 E1E2"/>
    </vehicle>
    <vehicle id="114" type="car" depart="317.98">
        <route edges="A0B0 B0C0 C0D0"/>
    </vehicle>
    <vehicle id="115" type="truck" depart="320.38">
        <route edges="A1B1 B1C1 C1C2 C2D2 D2D1 D1D0 D0C0"/>
    </vehicle>
    <vehicle id="116" type="truck" depart="322.09">
        <route edges="C2B2 B2A2 A2A1 A1A0"/>
    </vehicle>
    <vehicle id="117" type="truck" depart="323.93">
        <route edges="A1B1 B1A1 A1B1 B1B2 B2A2 A2A1"/>
    </vehicle>
    <vehicle id="118" type="truck" depart="325.95">
        <route edges="E1E0 E0D0 D0E0 E0E1"/>
    </vehicle>
    <vehicle id="119" type="truck" depart="327.92">
        <route edges="E1D1 D1C1"/>
    </vehicle>
    <vehicle id="120" type="car" depart="330.29">
        <route edges="C2C1 C1C0 C0C1"/>
    </vehicle>
    <vehicle id="121" type="truck" depart="332.20">
        <route edges="C2B2 B2A2 A2A1 A1A0"/>
    </vehicle>
    <vehicle id="122" type="bus" depart="334.56">
        <route edges="B0A0 A0A1"/>
    </vehicle>
    <vehicle id="123" type="truck" depart="336.54">
        <route edges="B0C0 C0D0 D0D1 D1C1"/>
    </vehicle>
    <vehicle id="124" type="bus" depart="338.21">
        <route edges="C0B0 B0A0"/>
    </vehicle>
    <vehicle id="125" type="truck" depart="340.63">
        <route edges="B1B2 B2C2 C2D2 D2C2 C2C1 C1B1 B1B2"/>
    </vehicle>
    <vehicle id="126" type="bus" depart="342.15">
        <route edges="E0E1 E1E0 E0D0"/>
    </vehicle>
    <vehicle id="127" type="bus" depart="344.08">
        <route edges="D2D1 D1D0 D0C0 C0C1 C1C2"/>
    </vehicle>
    <vehicle id="128" type="bus" depart="346.35">
        <route edges="C1D1 D1D2 D2E2 E2E1 E1D1 D1E1"/>
    </vehicle>
    <vehicle id="129" type="bus" depart="348.81">
        <route edges="D0E0 E0E1 E1D1 D1D2"/>
    </vehicle>
    <vehicle id="130" type="car" depart="351.11">
        <route edges="D2E2 E2E1 E1E2 E2D2 D2C2 C2D2"/>
    </vehicle>
    <vehicle id="131" type="truck" depart="353.13">
        <route edges="D0E0 E0E1 E1D1 D1D2"/>
    </vehicle>
    <vehicle id="132" type="bus" depart="355.15">
        <route edges="E0E1 E1E0 E0D0"/>
    </vehicle>
    <vehicle id="133" type="car" depart="356.72">
        <route edges="D1C1 C1D1 D1C1 C1B1 B1A1 A1A2 A2B2"/>
    </vehicle>
    <vehicle id="134" type="car" depart="359.00">
        <route edges="D1D2 D2C2 C2B2 B2A2 A2A1 A1A2 A2B2"/>
    </vehicle>
    <vehicle id="135" type="truck" depart="360.62">
        <route edges="A0B0 B0C0 C0D0 D0E0 E0E1 E1E0 E0D0"/>
    </vehicle>
    <vehicle id="136" type="bus" depart="362.80">
        <route edges="B2B1 B1B2 B2C2 C2B2 B2A2 A2A1 A1A0"/>
    </vehicle>
    <vehicle id="137" type="truck" depart="364.92">
        <route edges="E1D1 D1C1"/>
    </vehicle>
    <vehicle id="138" type="bus" depart="365.61">
        <route edges="C0D0 D0E0 E0E1 E1E2"/>
    </vehicle>
    <vehicle id="139" type="car" depart="366.15">
        <route edges="A2A1 A1B1 B1B0 B0C0 C0C1 C1D1"/>
    </vehicle>
    <vehicle id="140" type="bus" depart="367.61">
        <route edges="B2B1 B1B2 B2C2 C2B2 B2A2 A2A1 A1A0"/>
    </vehicle>
    <vehicle id="141" type="car" depart="368.90">
        <route edges="B1A1 A1A0 A0B0 B0C0 C0C1"/>
    </vehicle>
    <vehicle id="142" type="truck" depart="370.09">
        <route edges="B0C0 C0B0 B0C0 C0B0 B0B1 B1A1 A1B1"/>
    </vehicle>
    <vehicle id="143" type="car" depart="371.35">
        <route edges="B1B2 B2A2 A2A1 A1A2 A2B2 B2A2 A2A1"/>
    </vehicle>
    <vehicle id="144" type="car" depart="372.14">
        <route edges="D0C0 C0C1 C1D1 D1D2 D2C2 C2B2 B2A2"/>
    </vehicle>
    <vehicle id="145" type="car" depart="372.83">
        <route edges="E2D2 D2C2 C2B2 B2B1 B1B2"/>
    </vehicle>
    <vehicle id="146" type="truck" depart="373.54">
        <route edges="D2D1 D1C1 C1D1"/>
    </vehicle>
    <vehicle id="147" type="bus" depart="374.08">
        <route edges="D0C0 C0C1 C1D1 D1D2 D2C2 C2B2 B2A2"/>
    </vehicle>
    <vehicle id="148" type="bus" depart="374.69">
        <route edges="E1E0 E0D0 D0E0 E0E1"/>
    </vehicle>
    <vehicle id="149" type="truck" depart="375.41">
        <route edges="C2C1 C1D1 D1E1 E1D1"/>
    </vehicle>
    <vehicle id="150" type="car" depart="376.57">
        <route edges="A1A2 A2B2 B2C2 C2D2 D2E2 E2E1 E1D1"/>
    </vehicle>
    <vehicle id="151" type="car" depart="377.65">
        <route edges="E1E0 E0D0 D0E0 E0E1"/>
    </vehicle>
    <vehicle id="152" type="truck" depart="378.23">
        <route edges="C1C2 C2B2 B2B1 B1B0 B0B1"/>
    </vehicle>
    <vehicle id="153" type="car" depart="378.95">
        <route edges="C0B0 B0B1 B1A1 A1A2 A2B2 B2A2"/>
    </vehicle>
    <vehicle id="154" type="truck" depart="379.55">
        <route edges="D2D1 D1D0 D0C0 C0C1 C1C2"/>
    </vehicle>
    <vehicle id="155" type="car" depart="380.34">
        <route edges="E2D2 D2C2 C2B2 B2B1 B1B2"/>
    </vehicle>
    <vehicle id="156" type="truck" depart="381.01">
        <route edges="A1A0 A0B0 B0A0 A0A1 A1A0 A0B0"/>
    </vehicle>
    <vehicle id="157" type="bus" depart="381.79">
        <route edges="D1D0 D0C0 C0C1 C1C2 C2C1 C1C2 C2D2"/>
    </vehicle>
    <vehicle id="158" type="car" depart="382.57">
        <route edges="D2D1 D1D0 D0C0 C0C1 C1C2"/>
    </vehicle>
    <vehicle id="159" type="truck" depart="383.36">
        <route edges="B0A0 A0A1"/>
    </vehicle>
    <vehicle id="160" type="bus" depart="384.32">
        <route edges="C0C1 C1C0 C0B0 B0B1 B1B2 B2C2 C2D2"/>
    </vehicle>
    <vehicle id="161" type="truck" depart="385.04">
        <route edges="A1B1 B1C1 C1C2 C2D2 D2D1 D1D0 D0C0"/>
    </vehicle>
    <vehicle id="162" type="car" depart="385.58">
        <route edges="C2D2 D2D1 D1D0 D0D1 D1D0"/>
    </vehicle>
    <vehicle id="163" type="car" depart="386.57">
        <route edges="C2C1 C1D1 D1E1 E1D1"/>
    </vehicle>
    <vehicle id="164" type="bus" depart="387.15">
        <route edges="D0C0 C0C1 C1D1 D1D2 D2C2 C2B2 B2A2"/>
    </vehicle>
    <vehicle id="165" type="bus" depart="388.02">
        <route edges="B0C0 C0B0 B0C0 C0B0 B0B1 B1A1 A1B1"/>
    </vehicle>
    <vehicle id="166" type="bus" depart="388.71">
        <route edges="B1C1 C1D1"/>
    </vehicle>
    <vehicle id="167" type="bus" depart="389.73">
        <route edges="E1E2 E2D2 D2C2 C2B2 B2A2"/>
    </vehicle>
    <vehicle id="168" type="car" depart="391.02">
        <route edges="D1D0 D0C0 C0C1 C1C2 C2C1 C1C2 C2D2"/>
    </vehicle>
    <vehicle id="169" type="car" depart="392.47">
        <route edges="D2D1 D1D0 D0C0 C0C1 C1C2"/>
    </vehicle>
    <vehicle id="170" type="truck" depart="393.06">
        <route edges="B2C2 C2B2 B2A2"/>
    </vehicle>
    <vehicle id="171" type="car" depart="394.44">
        <route edges="A1A0 A0B0 B0C0 C0D0"/>
    </vehicle>
    <vehicle id="172" type="car" depart="395.02">
        <route edges="E1E2 E2D2 D2C2 C2C1"/>
    </vehicle>
    <vehicle id="173" type="bus" depart="395.75">
        <route edges="B2C2 C2D2 D2E2 E2E1"/>
    </vehicle>
    <vehicle id="174" type="truck" depart="396.57">
        <route edges="B1C1 C1D1"/>
    </vehicle>
    <vehicle id="175" type="truck" depart="397.72">
        <route edges="E1E0 E0D0 D0C0 C0B0 B0A0 A0A1 A1A2"/>
    </vehicle>
    <vehicle id="176" type="car" depart="398.86">
        <route edges="C0D0 D0E0 E0E1 E1E2 E2D2 D2C2 C2B2"/>
    </vehicle>
    <vehicle id="177" type="truck" depart="399.80">
        <route edges="D0C0 C0B0 B0A0 A0A1 A1A0"/>
    </vehicle>
    <vehicle id="178" type="truck" depart="400.73">
        <route edges="A0A1 A1A2 A2B2 B2A2 A2A1 A1B1 B1C1"/>
    </vehicle>
    <vehicle id="179" type="truck" depart="402.22">
        <route edges="B2C2 C2D2 D2D1"/>
    </vehicle>
    <vehicle id="180" type="car" depart="403.18">
        <route edges="D0D1 D1D2 D2E2"/>
    </vehicle>
    <vehicle id="181" type="bus" depart="404.00">
        <route edges="A2B2 B2A2 A2A1"/>
    </vehicle>
    <vehicle id="182" type="bus" depart="404.91">
        <route edges="C0D0 D0E0 E0E1 E1E2 E2D2 D2C2 C2B2"/>
    </vehicle>
    <vehicle id="183" type="truck" depart="406.22">
        <route edges="E1E0 E0D0 D0C0 C0B0 B0A0 A0A1 A1A2"/>
    </vehicle>
    <vehicle id="184" type="truck" depart="407.22">
        <route edges="D0D1 D1D2 D2E2"/>
    </vehicle>
    <vehicle id="185" type="car" depart="408.26">
        <route edges="D1D0 D0E0 E0E1 E1E2 E2D2 D2C2"/>
    </vehicle>
    <vehicle id="186" type="car" depart="409.25">
        <route edges="D0E0 E0E1 E1E0"/>
    </vehicle>
    <vehicle id="187" type="bus" depart="410.54">
        <route edges="B1B0 B0B1 B1B2"/>
    </vehicle>
    <vehicle id="188" type="car" depart="411.45">
        <route edges="E1E2 E2D2 D2C2 C2B2 B2A2"/>
    </vehicle>
    <vehicle id="189" type="bus" depart="412.60">
        <route edges="A0A1 A1B1 B1C1 C1C2"/>
    </vehicle>
    <vehicle id="190" type="truck" depart="413.97">
        <route edges="D0D1 D1D2 D2E2"/>
    </vehicle>
    <vehicle id="191" type="truck" depart="414.96">
        <route edges="C2B2 B2A2 A2A1 A1B1 B1B2 B2C2"/>
    </vehicle>
    <vehicle id="192" type="car" depart="415.90">
        <route edges="A1A2 A2B2 B2A2 A2A1 A1A0"/>
    </vehicle>
    <vehicle id="193" type="car" depart="417.26">
        <route edges="E0D0 D0D1 D1E1 E1D1"/>
    </vehicle>
    <vehicle id="194" type="car" depart="418.20">
        <route edges="C2D2 D2D1 D1D0 D0D1 D1D0"/>
    </vehicle>
    <vehicle id="195" type="bus" depart="418.91">
        <route edges="D1C1 C1B1 B1A1 A1A2 A2B2"/>
    </vehicle>
    <vehicle id="196" type="car" depart="420.36">
        <route edges="C0B0 B0A0 A0A1"/>
    </vehicle>
    <vehicle id="197" type="car" depart="421.40">
        <route edges="B1B0 B0C0 C0C1 C1C0 C0B0 B0A0"/>
    </vehicle>
    <vehicle id="198" type="car" depart="422.35">
        <route edges="C2B2 B2A2 A2A1 A1A0"/>
    </vehicle>
    <vehicle id="199" type="truck" depart="423.29">
        <route edges="C0B0 B0B1 B1A1 A1A2 A2B2 B2A2"/>
    </vehicle>
    <vehicle id="200" type="car" depart="424.52">
        <route edges="C0D0 D0E0 E0E1 E1E2"/>
    </vehicle>
    <vehicle id="201" type="truck" depart="425.54">
        <route edges="A0B0 B0C0 C0D0 D0E0 E0E1 E1E0 E0D0"/>
    </vehicle>
    <vehicle id="202" type="truck" depart="426.70">
        <route edges="C2C1 C1C0 C0C1"/>
    </vehicle>
    <vehicle id="203" type="bus" depart="427.46">
        <route edges="E0E1 E1E0 E0D0"/>
    </vehicle>
    <vehicle id="204" type="car" depart="428.80">
        <route edges="E2E1 E1E0 E0D0 D0C0 C0B0 B0A0"/>
    </vehicle>
    <vehicle id="205" type="car" depart="429.85">
        <route edges="C1B1 B1A1"/>
    </vehicle>
    <vehicle id="206" type="truck" depart="431.06">
        <route edges="A1B1 B1C1 C1C2 C2D2 D2D1 D1D0 D0C0"/>
    </vehicle>
    <vehicle id="207" type="bus" depart="432.44">
        <route edges="B2C2 C2B2 B2A2"/>
    </vehicle>
    <vehicle id="208" type="bus" depart="433.06">
        <route edges="A1A0 A0B0 B0B1 B1B2 B2B1"/>
    </vehicle>
    <vehicle id="209" type="car" depart="434.15">
        <route edges="C2D2 D2C2 C2C1"/>
    </vehicle>
    <vehicle id="210" type="car" depart="434.91">
        <route edges="E1D1 D1C1"/>
    </vehicle>
    <vehicle id="211" type="bus" depart="436.23">
        <route edges="E2E1 E1E0 E0D0 D0E0 E0E1"/>
    </vehicle>
    <vehicle id="212" type="truck" depart="437.23">
        <route edges="C2B2 B2A2 A2A1 A1B1 B1B2 B2C2"/>
    </vehicle>
    <vehicle id="213" type="bus" depart="438.17">
        <route edges="B0A0 A0A1 A1B1 B1C1 C1D1 D1E1 E1E0"/>
    </vehicle>
    <vehicle id="214" type="bus" depart="439.44">
        <route edges="D1C1 C1D1 D1C1 C1B1 B1A1 A1A2 A2B2"/>
    </vehicle>
    <vehicle id="215" type="bus" depart="440.52">
        <route edges="C1C2 C2D2 D2D1 D1D0"/>
    </vehicle>
    <vehicle id="216" type="bus" depart="441.32">
        <route edges="A1A0 A0B0 B0A0 A0A1 A1A0 A0B0"/>
    </vehicle>
    <vehicle id="217" type="truck" depart="441.84">
        <route edges="C2C1 C1C2"/>
    </vehicle>
    <vehicle id="218" type="car" depart="442.45">
        <route edges="C0D0 D0E0 E0E1 E1E2"/>
    </vehicle>
    <vehicle id="219" type="truck" depart="442.96">
        <route edges="C2D2 D2C2 C2C1"/>
    </vehicle>
    <vehicle id="220" type="truck" depart="443.89">
        <route edges="D1C1 C1D1 D1C1 C1B1 B1A1 A1A2 A2B2"/>
    </vehicle>
    <vehicle id="221" type="car" depart="445.03">
        <route edges="A0B0 B0C0 C0B0 B0A0 A0A1 A1A0 A0B0"/>
    </vehicle>
    <vehicle id="222" type="bus" depart="445.56">
        <route edges="C2D2 D2C2 C2C1"/>
    </vehicle>
    <vehicle id="223" type="truck" depart="446.42">
        <route edges="D2D1 D1D0 D0C0 C0C1 C1C2"/>
    </vehicle>
    <vehicle id="224" type="truck" depart="447.28">
        <route edges="E1E0 E0D0 D0E0 E0E1 E1E0"/>
    </vehicle>
    <vehicle id="225" type="bus" depart="448.44">
        <route edges="B1A1 A1A0 A0B0 B0C0 C0C1"/>
    </vehicle>
    <vehicle id="226" type="truck" depart="449.23">
        <route edges="B1B2 B2A2 A2A1 A1A2 A2B2 B2A2 A2A1"/>
    </vehicle>
    <vehicle id="227" type="bus" depart="450.39">
        <route edges="A1A2 A2B2 B2C2 C2D2 D2E2 E2E1 E1D1"/>
    </vehicle>
    <vehicle id="228" type="car" depart="451.06">
        <route edges="C0B0 B0A0"/>
    </vehicle>
    <vehicle id="229" type="bus" depart="452.10">
        <route edges="C2C1 C1C0 C0C1"/>
    </vehicle>
    <vehicle id="230" type="car" depart="453.51">
        <route edges="A1A0 A0B0 B0A0 A0A1 A1A0 A0B0"/>
    </vehicle>
    <vehicle id="231" type="bus" depart="454.99">
        <route edges="C2D2 D2C2 C2C1"/>
    </vehicle>
    <vehicle id="232" type="truck" depart="455.67">
        <route edges="B0C0 C0B0 B0C0 C0B0 B0B1 B1A1 A1B1"/>
    </vehicle>
    <vehicle id="233" type="truck" depart="456.64">
        <route edges="E0D0 D0C0 C0B0 B0C0 C0D0 D0E0"/>
    </vehicle>
    <vehicle id="234" type="truck" depart="457.95">
        <route edges="A1A0 A0B0 B0B1 B1B2 B2B1"/>
    </vehicle>
    <vehicle id="235" type="bus" depart="459.03">
        <route edges="A1A0 A0B0 B0C0 C0D0"/>
    </vehicle>
    <vehicle id="236" type="bus" depart="460.05">
        <route edges="E2D2 D2E2 E2E1 E1D1"/>
    </vehicle>
    <vehicle id="237" type="bus" depart="460.57">
        <route edges="C1B1 B1A1"/>
    </vehicle>
    <vehicle id="238" type="truck" depart="462.07">
        <route edges="A1A0 A0B0 B0A0 A0A1 A1A0 A0B0"/>
    </vehicle>
    <vehicle id="239" type="car" depart="462.65">
        <route edges="C1C0 C0D0 D0E0"/>
    </vehicle>
    <vehicle id="240" type="truck" depart="463.32">
        <route edges="C2C1 C1C0 C0C1"/>
    </vehicle>
    <vehicle id="241" type="car" depart="464.73">
        <route edges="B2C2 C2D2 D2D1"/>
    </vehicle>
    <vehicle id="242" type="car" depart="466.02">
        <route edges="A1B1 B1C1 C1C2 C2D2 D2D1 D1D0 D0C0"/>
    </vehicle>
    <vehicle id="243" type="truck" depart="467.16">
        <route edges="E0D0 D0D1 D1E1 E1D1"/>
    </vehicle>
    <vehicle id="244" type="car" depart="467.90">
        <route edges="E2D2 D2C2 C2B2 B2B1 B1B2"/>
    </vehicle>
    <vehicle id="245" type="bus" depart="469.06">
        <route edges="E1E0 E0D0 D0E0 E0E1"/>
    </vehicle>
    <vehicle id="246" type="car" depart="469.65">
        <route edges="D0D1 D1D2 D2E2"/>
    </vehicle>
    <vehicle id="247" type="truck" depart="470.24">
        <route edges="A1A0 A0B0 B0B1 B1B2 B2B1"/>
    </vehicle>
    <vehicle id="248" type="bus" depart="471.47">
        <route edges="E0D0 D0C0 C0B0 B0B1 B1B2 B2C2"/>
    </vehicle>
    <vehicle id="249" type="truck" depart="471.97">
        <route edges="B1B0 B0A0 A0A1"/>
    </vehicle>
    <vehicle id="250" type="car" depart="472.95">
        <route edges="B0A0 A0A1 A1B1 B1C1 C1D1 D1E1 E1E0"/>
    </vehicle>
    <vehicle id="251" type="bus" depart="473.72">
        <route edges="D1D2 D2E2 E2E1 E1D1 D1C1"/>
    </vehicle>
    <vehicle id="252" type="car" depart="474.94">
        <route edges="A1A2 A2B2 B2A2 A2A1 A1A0"/>
    </vehicle>
    <vehicle id="253" type="bus" depart="475.56">
        <route edges="A0A1 A1A2 A2B2 B2A2 A2A1 A1B1 B1C1"/>
    </vehicle>
    <vehicle id="254" type="truck" depart="476.53">
        <route edges="B0A0 A0A1 A1B1 B1C1 C1D1 D1E1 E1E0"/>
    </vehicle>
    <vehicle id="255" type="car" depart="477.84">
        <route edges="E2E1 E1D1"/>
    </vehicle>
    <vehicle id="256" type="truck" depart="479.33">
        <route edges="D1D0 D0E0 E0E1 E1E2 E2D2 D2C2"/>
    </vehicle>
    <vehicle id="257" type="bus" depart="480.12">
        <route edges="A2B2 B2C2 C2D2 D2E2 E2E1"/>
    </vehicle>
    <vehicle id="258" type="bus" depart="480.82">
        <route edges="E1E2 E2D2 D2C2 C2C1"/>
    </vehicle>
    <vehicle id="259" type="truck" depart="481.82">