<?xml version="1.0" ?>
<routes>
    <vType id="car" accel="2.6" decel="4.5" sigma="0.5" length="5" maxSpeed="70"/>
    <vType id="bus" accel="1.2" decel="4.0" sigma="0.5" length="12" maxSpeed="50"/>
    <vType id="truck" accel="1.0" decel="4.0" sigma="0.5" length="8" maxSpeed="60"/>
    <vehicle id="0" type="truck" depart="0.00">
        <route edges="B1B2 B2C2 C2D2 D2C2 C2B2 B2A2 A2A1"/>
    </vehicle>
    <vehicle id="1" type="bus" depart="3.80">
        <route edges="A1A0 A0B0 B0B1 B1B2 B2A2"/>
    </vehicle>
    <vehicle id="2" type="car" depart="7.33">
        <route edges="A1A0 A0B0 B0C0 C0B0 B0A0 A0A1"/>
    </vehicle>
    <vehicle id="3" type="truck" depart="11.28">
        <route edges="D0D1 D1E1 E1E0"/>
    </vehicle>
    <vehicle id="4" type="bus" depart="15.62">
        <route edges="D1D2 D2C2 C2B2 B2B1 B1B0 B0B1"/>
    </vehicle>
    <vehicle id="5" type="bus" depart="19.29">
        <route edges="A1B1 B1B0"/>
    </vehicle>
    <vehicle id="6" type="car" depart="22.99">
        <route edges="D1D2 D2C2 C2B2 B2B1 B1B0 B0B1"/>
    </vehicle>
    <vehicle id="7" type="car" depart="27.24">
        <route edges="B1B2 B2C2 C2D2 D2C2 C2B2 B2A2 A2A1"/>
    </vehicle>
    <vehicle id="8" type="bus" depart="31.03">
        <route edges="D1E1 E1E0 E0D0 D0D1 D1D2 D2E2"/>
    </vehicle>
    <vehicle id="9" type="car" depart="34.92">
        <route edges="C0D0 D0E0 E0E1 E1E2"/>
    </vehicle>
    <vehicle id="10" type="car" depart="39.16">
        <route edges="C0D0 D0C0 C0C1 C1C0 C0B0 B0B1 B1C1"/>
    </vehicle>
    <vehicle id="11" type="bus" depart="43.25">
        <route edges="B1B2 B2C2 C2D2 D2C2 C2B2 B2A2 A2A1"/>
    </vehicle>
    <vehicle id="12" type="car" depart="47.69">
        <route edges="C0D0 D0C0 C0C1 C1C0 C0B0 B0B1 B1C1"/>
    </vehicle>
    <vehicle id="13" type="car" depart="52.16">
        <route edges="D1E1 E1D1 D1C1 C1C2"/>
    </vehicle>
    <vehicle id="14" type="car" depart="56.50">
        <route edges="A1A0 A0B0 B0C0 C0B0 B0A0 A0A1"/>
    </vehicle>
    <vehicle id="15" type="car" depart="60.88">
        <route edges="A2A1 A1B1 B1C1 C1B1 B1B2"/>
    </vehicle>
    <vehicle id="16" type="car" depart="64.86">
        <route edges="B0B1 B1B0 B0C0"/>
    </vehicle>
    <vehicle id="17" type="bus" depart="69.11">
        <route edges="C0D0 D0C0 C0C1 C1C0 C0B0 B0B1 B1C1"/>
    </vehicle>
    <vehicle id="18" type="car" depart="72.97">
        <route edges="D0D1 D1D0 D0E0 E0E1"/>
    </vehicle>
    <vehicle id="19" type="bus" depart="76.61">
        <route edges="B2A2 A2A1 A1A0 A0B0"/>
    </vehicle>
    <vehicle id="20" type="car" depart="80.73">
        <route edges="B2C2 C2C1 C1C0 C0C1"/>
    </vehicle>
    <vehicle id="21" type="truck" depart="84.56">
        <route edges="A2B2 B2C2"/>
    </vehicle>
    <vehicle id="22" type="car" depart="88.42">
        <route edges="C2C1 C1C0 C0C1 C1C2 C2B2 B2A2"/>
    </vehicle>
    <vehicle id="23" type="car" depart="91.97">
        <route edges="C0B0 B0B1"/>
    </vehicle>
    <vehicle id="24" type="car" depart="95.51">
        <route edges="A1B1 B1C1 C1D1 D1E1 E1D1 D1D0"/>
    </vehicle>
    <vehicle id="25" type="truck" depart="99.30">
        <route edges="C2D2 D2E2 E2E1 E1D1 D1E1 E1E2"/>
    </vehicle>
    <vehicle id="26" type="bus" depart="103.49">
        <route edges="C0D0 D0E0 E0E1"/>
    </vehicle>
    <vehicle id="27" type="truck" depart="107.83">
        <route edges="C0C1 C1C2 C2D2"/>
    </vehicle>
    <vehicle id="28" type="truck" depart="111.86">
        <route edges="C1C2 C2D2 D2E2 E2E1 E1E2 E2D2"/>
    </vehicle>
    <vehicle id="29" type="truck" depart="116.32">
        <route edges="C1D1 D1E1 E1E2"/>
    </vehicle>
    <vehicle id="30" type="car" depart="120.23">
        <route edges="D1E1 E1E0 E0D0"/>
    </vehicle>
    <vehicle id="31" type="truck" depart="124.14">
        <route edges="C0B0 B0B1"/>
    </vehicle>
    <vehicle id="32" type="bus" depart="128.47">
        <route edges="A0B0 B0C0 C0D0 D0E0 E0E1"/>
    </vehicle>
    <vehicle id="33" type="truck" depart="132.42">
        <route edges="B1B2 B2C2 C2D2 D2C2 C2B2 B2A2 A2A1"/>
    </vehicle>
    <vehicle id="34" type="bus" depart="136.16">
        <route edges="C1C2 C2C1 C1D1"/>
    </vehicle>
    <vehicle id="35" type="car" depart="140.24">
        <route edges="E0E1 E1E0 E0D0 D0C0 C0D0 D0D1"/>
    </vehicle>
    <vehicle id="36" type="bus" depart="144.30">
        <route edges="B2B1 B1B2 B2C2 C2D2"/>
    </vehicle>
    <vehicle id="37" type="bus" depart="148.80">
        <route edges="C1B1 B1C1 C1C0 C0D0 D0D1 D1D2 D2E2"/>
    </vehicle>
    <vehicle id="38" type="truck" depart="152.96">
        <route edges="D0C0 C0C1"/>
    </vehicle>
    <vehicle id="39" type="truck" depart="156.64">
        <route edges="A2A1 A1A2 A2B2 B2A2"/>
    </vehicle>
    <vehicle id="40" type="truck" depart="160.20">
        <route edges="C0D0 D0C0 C0C1 C1C0 C0B0 B0B1 B1C1"/>
    </vehicle>
    <vehicle id="41" type="truck" depart="164.02">
        <route edges="D1D2 D2C2 C2B2 B2B1 B1B0 B0B1"/>
    </vehicle>
    <vehicle id="42" type="car" depart="167.60">
        <route edges="C1C2 C2D2 D2E2 E2E1 E1E2 E2D2 D2C2"/>
    </vehicle>
    <vehicle id="43" type="truck" depart="171.48">
        <route edges="A0A1 A1A0 A0B0 B0C0"/>
    </vehicle>
    <vehicle id="44" type="car" depart="175.20">
        <route edges="E0E1 E1D1 D1D2 D2E2 E2E1 E1E0"/>
    </vehicle>
    <vehicle id="45" type="truck" depart="178.76">
        <route edges="B1B2 B2C2 C2D2 D2C2 C2B2 B2A2 A2A1"/>
    </vehicle>
    <vehicle id="46" type="truck" depart="183.17">
        <route edges="E0E1 E1E2"/>
    </vehicle>
    <vehicle id="47" type="car" depart="184.88">
        <route edges="E2D2 D2D1 D1D2"/>
    </vehicle>
    <vehicle id="48" type="car" depart="186.61">
        <route edges="D0C0 C0D0 D0C0 C0B0"/>
    </vehicle>
    <vehicle id="49" type="bus" depart="188.94">
        <route edges="E1E2 E2D2 D2D1 D1E1 E1E0 E0D0"/>
    </vehicle>
    <vehicle id="50" type="bus" depart="191.11">
        <route edges="C1B1 B1B2 B2C2 C2D2 D2E2 E2E1"/>
    </vehicle>
    <vehicle id="51" type="car" depart="192.95">
        <route edges="A1B1 B1B0"/>
    </vehicle>
    <vehicle id="52" type="car" depart="195.03">
        <route edges="B2A2 A2A1 A1A0 A0B0"/>
    </vehicle>
    <vehicle id="53" type="bus" depart="197.48">
        <route edges="D1E1 E1D1 D1C1 C1C2"/>
    </vehicle>
    <vehicle id="54" type="car" depart="199.10">
        <route edges="A1A2 A2B2"/>
    </vehicle>
    <vehicle id="55" type="bus" depart="201.49">
        <route edges="E1E0 E0D0"/>
    </vehicle>
    <vehicle id="56" type="bus" depart="203.42">
        <route edges="C0B0 B0B1"/>
    </vehicle>
    <vehicle id="57" type="car" depart="205.28">
        <route edges="B1B0 B0C0"/>
    </vehicle>
    <vehicle id="58" type="car" depart="207.24">
        <route edges="D0D1 D1D0 D0E0 E0E1 E1E2 E2D2"/>
    </vehicle>
    <vehicle id="59" type="car" depart="209.50">
        <route edges="B2B1 B1B2 B2C2 C2D2"/>
    </vehicle>
    <vehicle id="60" type="car" depart="211.56">
        <route edges="B1C1 C1C0 C0D0 D0E0 E0E1 E1E2"/>
    </vehicle>
    <vehicle id="61" type="bus" depart="213.21">
        <route edges="A1A2 A2B2"/>
    </vehicle>
    <vehicle id="62" type="car" depart="214.82">
        <route edges="B1B0 B0B1 B1B2 B2B1 B1B0 B0A0"/>
    </vehicle>
    <vehicle id="63" type="truck" depart="216.74">
        <route edges="A1A0 A0B0 B0B1 B1B2 B2A2"/>
    </vehicle>
    <vehicle id="64" type="car" depart="218.48">
        <route edges="C2B2 B2C2 C2B2"/>
    </vehicle>
    <vehicle id="65" type="car" depart="220.95">
        <route edges="E1D1 D1C1 C1C0 C0B0 B0A0 A0A1 A1B1"/>
    </vehicle>
    <vehicle id="66" type="car" depart="223.12">
        <route edges="E0E1 E1D1 D1D2 D2E2 E2E1 E1E0"/>
    </vehicle>
    <vehicle id="67" type="truck" depart="225.62">
        <route edges="A0B0 B0C0 C0D0 D0E0 E0E1"/>
    </vehicle>
    <vehicle id="68" type="bus" depart="227.46">
        <route edges="A0B0 B0C0 C0D0 D0E0 E0E1"/>
    </vehicle>
    <vehicle id="69" type="truck" depart="229.38">
        <route edges="C0D0 D0E0 E0E1"/>
    </vehicle>
    <vehicle id="70" type="bus" depart="231.45">
        <route edges="B2B1 B1B2 B2C2 C2D2"/>
    </vehicle>
    <vehicle id="71" type="truck" depart="233.82">
        <route edges="C0B0 B0B1"/>
    </vehicle>
    <vehicle id="72" type="bus" depart="235.67">
        <route edges="C0C1 C1B1 B1A1 A1A2 A2B2"/>
    </vehicle>
    <vehicle id="73" type="bus" depart="237.87">
        <route edges="C0D0 D0E0 E0E1"/>
    </vehicle>
    <vehicle id="74" type="car" depart="240.05">
        <route edges="B2B1 B1B2 B2C2 C2D2"/>
    </vehicle>
    <vehicle id="75" type="car" depart="241.56">
        <route edges="D0D1 D1E1 E1E0"/>
    </vehicle>
    <vehicle id="76" type="bus" depart="243.14">
        <route edges="C2B2 B2C2 C2B2"/>
    </vehicle>
    <vehicle id="77" type="car" depart="244.80">
        <route edges="E0E1 E1E2"/>
    </vehicle>
    <vehicle id="78" type="bus" depart="247.11">
        <route edges="D0C0 C0D0 D0C0 C0B0"/>
    </vehicle>
    <vehicle id="79" type="bus" depart="248.76">
        <route edges="D1D0 D0E0"/>
    </vehicle>
    <vehicle id="80" type="bus" depart="251.04">
        <route edges="B2B1 B1B2 B2C2 C2D2"/>
    </vehicle>
    <vehicle id="81" type="truck" depart="252.55">
        <route edges="D2E2 E2E1"/>
    </vehicle>
    <vehicle id="82" type="bus" depart="255.04">
        <route edges="A0A1 A1A0 A0B0"/>
    </vehicle>
    <vehicle id="83" type="car" depart="257.40">
        <route edges="A0B0 B0B1 B1B2 B2A2 A2A1 A1A0"/>
    </vehicle>
    <vehicle id="84" type="car" depart="259.70">
        <route edges="B1A1 A1A2 A2B2 B2C2"/>
    </vehicle>
    <vehicle id="85" type="truck" depart="262.05">
        <route edges="B2B1 B1B2 B2C2 C2D2"/>
    </vehicle>
    <vehicle id="86" type="car" depart="263.83">
        <route edges="A1A2 A2B2 B2A2 A2A1"/>
    </vehicle>
    <vehicle id="87" type="bus" depart="265.69">
        <route edges="A2A1 A1B1 B1C1 C1B1 B1B2"/>
    </vehicle>
    <vehicle id="88" type="truck" depart="267.32">
        <route edges="C1D1 D1D2"/>
    </vehicle>
    <vehicle id="89" type="bus" depart="268.95">
        <route edges="A0B0 B0C0 C0D0 D0E0 E0E1"/>
    </vehicle>
    <vehicle id="90" type="car" depart="270.52">
        <route edges="A0A1 A1A0 A0B0 B0C0"/>
    </vehicle>
    <vehicle id="91" type="truck" depart="272.27">
        <route edges="A1A0 A0B0 B0B1 B1B0"/>
    </vehicle>
    <vehicle id="92" type="car" depart="274.43">
        <route edges="A1B1 B1B0"/>
    </vehicle>
    <vehicle id="93" type="car" depart="276.24">
        <route edges="A2A1 A1B1 B1C1 C1B1 B1B2"/>
    </vehicle>
    <vehicle id="94" type="car" depart="278.22">
        <route edges="B1A1 A1A2"/>
    </vehicle>
    <vehicle id="95" type="car" depart="280.48">
        <route edges="D1D0 D0E0"/>
    </vehicle>
    <vehicle id="96" type="truck" depart="282.40">
        <route edges="C1C2 C2C1 C1D1"/>
    </vehicle>
    <vehicle id="97" type="truck" depart="284.65">
        <route edges="D1D0 D0E0"/>
    </vehicle>
    <vehicle id="98" type="car" depart="286.19">
        <route edges="C0C1 C1C2 C2D2"/>
    </vehicle>
    <vehicle id="99" type="truck" depart="288.42">
        <route edges="E2D2 D2D1 D1D2"/>
    </vehicle>
    <vehicle id="100" type="bus" depart="290.16">
        <route edges="B0A0 A0A1"/>
    </vehicle>
    <vehicle id="101" type="bus" depart="292.27">
        <route edges="C2D2 D2E2 E2E1 E1D1 D1E1 E1E2"/>
    </vehicle>
    <vehicle id="102" type="bus" depart="294.21">
        <route edges="A1B1 B1A1 A1A0 A0B0 B0B1 B1B2 B2A2"/>
    </vehicle>
    <vehicle id="103" type="bus" depart="296.50">
        <route edges="A2A1 A1A2 A2B2 B2A2"/>
    </vehicle>
    <vehicle id="104" type="bus" depart="298.39">
        <route edges="A1A2 A2B2 B2A2 A2A1"/>
    </vehicle>
    <vehicle id="105" type="car" depart="300.05">
        <route edges="B1B2 B2C2 C2D2 D2C2 C2B2 B2A2 A2A1"/>
    </vehicle>
    <vehicle id="106" type="car" depart="301.89">
        <route edges="B1C1 C1D1"/>
    </vehicle>
    <vehicle id="107" type="car" depart="303.81">
        <route edges="A1B1 B1B0"/>
    </vehicle>
    <vehicle id="108" type="bus" depart="305.42">
        <route edges="C2C1 C1C0 C0C1 C1C2 C2B2 B2A2"/>
    </vehicle>
    <vehicle id="109" type="car" depart="307.63">
        <route edges="C0D0 D0E0 E0E1 E1E2"/>
    </vehicle>
    <vehicle id="110" type="bus" depart="310.05">
        <route edges="C0C1 C1D1 D1D2"/>
    </vehicle>
    <vehicle id="111" type="truck" depart="311.96">
        <route edges="A1A0 A0B0 B0C0 C0B0 B0A0 A0A1"/>
    </vehicle>
    <vehicle id="112" type="truck" depart="314.26">
        <route edges="C0D0 D0E0 E0E1 E1E2"/>
    </vehicle>
    <vehicle id="113" type="truck" depart="316.43">
        <route edges="C1C0 C0C1 C1C0 C0B0 B0B1 B1B2"/>
    </vehicle>
    <vehicle id="114" type="truck" depart="318.02">
        <route edges="E0E1 E1D1 D1D2 D2E2 E2E1 E1E0"/>
    </vehicle>
    <vehicle id="115" type="bus" depart="319.54">
        <route edges="B0A0 A0A1"/>
    </vehicle>
    <vehicle id="116" type="bus" depart="321.30">
        <route edges="A0B0 B0C0 C0D0 D0E0 E0E1"/>
    </vehicle>
    <vehicle id="117" type="truck" depart="323.22">
        <route edges="A0A1 A1A0 A0B0 B0C0"/>
    </vehicle>
    <vehicle id="118" type="truck" depart="325.24">
        <route edges="A2B2 B2C2"/>
    </vehicle>
    <vehicle id="119" type="car" depart="327.66">
        <route edges="E0E1 E1D1 D1D2 D2E2 E2E1 E1E0"/>
    </vehicle>
    <vehicle id="120" type="bus" depart="329.53">
        <route edges="E2D2 D2C2 C2D2 D2C2"/>
    </vehicle>
    <vehicle id="121" type="bus" depart="331.84">
        <route edges="D1E1 E1D1 D1C1 C1C2"/>
    </vehicle>
    <vehicle id="122" type="bus" depart="333.45">
        <route edges="D1E1 E1D1 D1C1 C1C2"/>
    </vehicle>
    <vehicle id="123" type="truck" depart="335.70">
        <route edges="E2E1 E1D1 D1C1 C1B1"/>
    </vehicle>
    <vehicle id="124" type="bus" depart="337.78">
        <route edges="C1C2 C2C1 C1D1"/>
    </vehicle>
    <vehicle id="125" type="bus" depart="340.00">
        <route edges="A1A0 A0B0 B0B1 B1B2 B2A2"/>
    </vehicle>
    <vehicle id="126" type="car" depart="342.03">
        <route edges="E0D0 D0D1 D1C1 C1C0 C0B0 B0B1 B1B2"/>
    </vehicle>
    <vehicle id="127" type="truck" depart="343.86">
        <route edges="D1D2 D2D1"/>
    </vehicle>
    <vehicle id="128" type="bus" depart="345.42">
        <route edges="C0D0 D0E0 E0E1 E1E2"/>
    </vehicle>
    <vehicle id="129" type="car" depart="347.32">
        <route edges="C1C2 C2D2 D2E2 E2E1 E1E2 E2D2 D2C2"/>
    </vehicle>
    <vehicle id="130" type="bus" depart="349.26">
        <route edges="C0D0 D0E0 E0E1"/>
    </vehicle>
    <vehicle id="131" type="bus" depart="350.81">
        <route edges="C2D2 D2E2 E2E1"/>
    </vehicle>
    <vehicle id="132" type="car" depart="353.06">
        <route edges="C2C1 C1C0 C0D0 D0E0"/>
    </vehicle>
    <vehicle id="133" type="truck" depart="354.59">
        <route edges="B0A0 A0A1 A1A0 A0B0 B0A0 A0A1 A1A0"/>
    </vehicle>
    <vehicle id="134" type="bus" depart="356.75">
        <route edges="A2A1 A1B1 B1C1 C1B1 B1B2"/>
    </vehicle>
    <vehicle id="135" type="car" depart="358.67">
        <route edges="B0B1 B1B2 B2B1"/>
    </vehicle>
    <vehicle id="136" type="bus" depart="361.11">
        <route edges="C1C2 C2C1 C1D1"/>
    </vehicle>
    <vehicle id="137" type="truck" depart="362.75">
        <route edges="E1E2 E2D2 D2D1 D1E1 E1E0 E0D0"/>
    </vehicle>
    <vehicle id="138" type="car" depart="364.98">
        <route edges="E1E0 E0D0 D0C0"/>
    </vehicle>
    <vehicle id="139" type="truck" depart="365.96">
        <route edges="C0D0 D0C0 C0C1 C1C0 C0B0 B0B1 B1C1"/>
    </vehicle>
    <vehicle id="140" type="car" depart="366.47">
        <route edges="E2E1 E1E0 E0D0 D0C0 C0C1"/>
    </vehicle>
    <vehicle id="141" type="car" depart="367.66">
        <route edges="B1B0 B0C0"/>
    </vehicle>
    <vehicle id="142" type="truck" depart="368.73">
        <route edges="C0D0 D0E0 E0E1"/>
    </vehicle>
    <vehicle id="143" type="car" depart="369.81">
        <route edges="A1A2 A2B2 B2A2 A2A1"/>
    </vehicle>
    <vehicle id="144" type="car" depart="370.74">
        <route edges="B0C0 C0D0 D0C0 C0B0 B0B1 B1A1 A1A2"/>
    </vehicle>
    <vehicle id="145" type="truck" depart="372.05">
        <route edges="B0A0 A0A1"/>
    </vehicle>
    <vehicle id="146" type="truck" depart="373.27">
        <route edges="B2A2 A2A1 A1A0 A0B0"/>
    </vehicle>
    <vehicle id="147" type="bus" depart="373.94">
        <route edges="E0E1 E1E0 E0D0 D0C0 C0D0 D0D1"/>
    </vehicle>
    <vehicle id="148" type="car" depart="374.67">
        <route edges="D1C1 C1C0 C0B0 B0B1 B1B2 B2A2"/>
    </vehicle>
    <vehicle id="149" type="bus" depart="375.34">
        <route edges="B1B0 B0B1 B1B2 B2B1 B1B0 B0A0"/>
    </vehicle>
    <vehicle id="150" type="car" depart="376.45">
        <route edges="A0B0 B0B1 B1B2 B2A2 A2A1 A1A0"/>
    </vehicle>
    <vehicle id="151" type="car" depart="377.16">
        <route edges="A2A1 A1A2 A2B2 B2C2"/>
    </vehicle>
    <vehicle id="152" type="bus" depart="378.06">
        <route edges="B2C2 C2C1 C1C0 C0C1"/>
    </vehicle>
    <vehicle id="153" type="bus" depart="378.62">
        <route edges="A2B2 B2C2 C2D2 D2C2"/>
    </vehicle>
    <vehicle id="154" type="bus" depart="380.08">
        <route edges="A2A1 A1A2 A2B2 B2C2"/>
    </vehicle>
    <vehicle id="155" type="bus" depart="381.42">
        <route edges="C1C0 C0C1 C1C0 C0D0 D0E0"/>
    </vehicle>
    <vehicle id="156" type="car" depart="382.56">
        <route edges="C1C2 C2D2 D2E2 E2E1 E1E2 E2D2"/>
    </vehicle>
    <vehicle id="157" type="truck" depart="383.80">
        <route edges="E0E1 E1E2"/>
    </vehicle>
    <vehicle id="158" type="truck" depart="384.72">
        <route edges="E1E2 E2D2 D2D1 D1E1 E1E0 E0D0"/>
    </vehicle>
    <vehicle id="159" type="bus" depart="386.18">
        <route edges="C2C1 C1C0 C0D0 D0E0"/>
    </vehicle>
    <vehicle id="160" type="truck" depart="386.84">
        <route edges="B2C2 C2C1 C1C0 C0C1"/>
    </vehicle>
    <vehicle id="161" type="car" depart="387.79">
        <route edges="C0B0 B0B1"/>
    </vehicle>
    <vehicle id="162" type="bus" depart="388.62">
        <route edges="D1D2 D2C2 C2B2 B2A2 A2A1"/>
    </vehicle>
    <vehicle id="163" type="truck" depart="389.28">
        <route edges="C2C1 C1C0 C0C1 C1C2 C2B2 B2A2"/>
    </vehicle>
    <vehicle id="164" type="bus" depart="390.56">
        <route edges="E1D1 D1C1 C1C0 C0B0 B0A0 A0A1 A1B1"/>
    </vehicle>
    <vehicle id="165" type="car" depart="391.36">
        <route edges="D1C1 C1B1 B1C1 C1C2 C2B2 B2A2"/>
    </vehicle>
    <vehicle id="166" type="truck" depart="391.98">
        <route edges="C1C0 C0C1 C1C0 C0B0 B0B1 B1B2"/>
    </vehicle>
    <vehicle id="167" type="car" depart="393.06">
        <route edges="A0A1 A1A0 A0B0"/>
    </vehicle>
    <vehicle id="168" type="car" depart="394.41">
        <route edges="D1C1 C1C0 C0B0 B0B1 B1B2 B2A2"/>
    </vehicle>
    <vehicle id="169" type="bus" depart="395.47">
        <route edges="C1B1 B1B2 B2C2 C2D2 D2E2 E2E1"/>
    </vehicle>
    <vehicle id="170" type="truck" depart="396.40">
        <route edges="C2D2 D2E2 E2E1"/>
    </vehicle>
    <vehicle id="171" type="bus" depart="397.52">
        <route edges="A2A1 A1A2 A2B2 B2A2"/>
    </vehicle>
    <vehicle id="172" type="truck" depart="398.18">
        <route edges="E0E1 E1D1 D1D2 D2E2 E2E1 E1E0"/>
    </vehicle>
    <vehicle id="173" type="bus" depart="399.49">
        <route edges="A1B1 B1A1 A1A0 A0B0 B0B1 B1B2 B2A2"/>
    </vehicle>
    <vehicle id="174" type="car" depart="400.79">
        <route edges="A1B1 B1A1 A1A0 A0B0 B0B1 B1B2 B2A2"/>
    </vehicle>
    <vehicle id="175" type="car" depart="401.76">
        <route edges="B1B0 B0C0"/>
    </vehicle>
    <vehicle id="176" type="bus" depart="402.62">
        <route edges="E0D0 D0C0"/>
    </vehicle>
    <vehicle id="177" type="truck" depart="403.87">
        <route edges="A2A1 A1B1 B1C1 C1B1 B1B2"/>
    </vehicle>
    <vehicle id="178" type="car" depart="404.49">
        <route edges="A0B0 B0B1"/>
    </vehicle>
    <vehicle id="179" type="bus" depart="405.27">
        <route edges="E1E0 E0D0"/>
    </vehicle>
    <vehicle id="180" type="bus" depart="406.55">
        <route edges="C1B1 B1B2 B2C2 C2C1 C1C0 C0C1"/>
    </vehicle>
    <vehicle id="181" type="truck" depart="407.67">
        <route edges="D1E1 E1E0 E0D0 D0D1 D1D2 D2E2"/>
    </vehicle>
    <vehicle id="182" type="car" depart="408.32">
        <route edges="E2E1 E1E0 E0D0 D0C0 C0B0 B0A0 A0A1"/>
    </vehicle>
    <vehicle id="183" type="bus" depart="409.12">
        <route edges="C1B1 B1C1 C1C0 C0D0 D0D1 D1D2 D2E2"/>
    </vehicle>
    <vehicle id="184" type="car" depart="409.84">
        <route edges="E0E1 E1D1 D1D2 D2E2 E2E1 E1E0"/>
    </vehicle>
    <vehicle id="185" type="bus" depart="410.44">
        <route edges="E1E0 E0D0"/>
    </vehicle>
    <vehicle id="186" type="truck" depart="411.66">
        <route edges="D0E0 E0E1 E1E2 E2D2"/>
    </vehicle>
    <vehicle id="187" type="bus" depart="413.00">
        <route edges="B1B0 B0C0"/>
    </vehicle>
    <vehicle id="188" type="car" depart="413.53">
        <route edges="A2B2 B2C2"/>
    </vehicle>
    <vehicle id="189" type="car" depart="414.83">
        <route edges="D1E1 E1E0 E0D0"/>
    </vehicle>
    <vehicle id="190" type="car" depart="415.87">
        <route edges="B1B0 B0B1 B1B2 B2B1 B1B0 B0A0"/>
    </vehicle>
    <vehicle id="191" type="bus" depart="416.57">
        <route edges="B0B1 B1B0 B0A0 A0A1 A1B1 B1B0 B0C0"/>
    </vehicle>
    <vehicle id="192" type="car" depart="417.32">
        <route edges="C0D0 D0C0 C0C1 C1C0 C0B0 B0B1 B1C1"/>
    </vehicle>
    <vehicle id="193" type="bus" depart="418.72">
        <route edges="C0D0 D0E0 E0E1 E1E2"/>
    </vehicle>
    <vehicle id="194" type="car" depart="419.88">
        <route edges="B0A0 A0A1 A1A0 A0B0 B0A0 A0A1 A1A0"/>
    </vehicle>
    <vehicle id="195" type="truck" depart="420.99">
        <route edges="C2C1 C1C0 C0D0 D0E0"/>
    </vehicle>
    <vehicle id="196" type="truck" depart="422.41">
        <route edges="E0E1 E1E0 E0D0 D0C0 C0D0 D0D1"/>
    </vehicle>
    <vehicle id="197" type="truck" depart="423.11">
        <route edges="B1C1 C1D1"/>
    </vehicle>
    <vehicle id="198" type="bus" depart="423.90">
        <route edges="D1E1 E1E0 E0D0"/>
    </vehicle>
    <vehicle id="199" type="bus" depart="424.68">
        <route edges="E1E2 E2D2 D2D1 D1E1 E1E0 E0D0"/>
    </vehicle>
    <vehicle id="200" type="car" depart="425.98">
        <route edges="A1B1 B1C1 C1D1 D1E1 E1D1 D1D0"/>
    </vehicle>
    <vehicle id="201" type="car" depart="427.46">
        <route edges="D0C0 C0C1"/>
    </vehicle>
    <vehicle id="202" type="truck" depart="428.25">
        <route edges="A2A1 A1A2 A2B2 B2C2"/>
    </vehicle>
    <vehicle id="203" type="bus" depart="429.29">
        <route edges="A1A2 A2B2"/>
    </vehicle>
    <vehicle id="204" type="car" depart="430.43">
        <route edges="C2B2 B2A2"/>
    </vehicle>
    <vehicle id="205" type="car" depart="431.71">
        <route edges="A1B1 B1C1 C1D1 D1E1 E1D1 D1D0"/>
    </vehicle>
    <vehicle id="206" type="car" depart="433.12">
        <route edges="C2B2 B2A2"/>
    </vehicle>
    <vehicle id="207" type="car" depart="433.86">
        <route edges="D0E0 E0E1 E1E2 E2D2"/>
    </vehicle>
    <vehicle id="208" type="car" depart="434.71">
        <route edges="D1D2 D2C2 C2B2 B2B1 B1B0 B0B1"/>
    </vehicle>
    <vehicle id="209" type="bus" depart="435.54">
        <route edges="C0C1 C1C2 C2D2"/>
    </vehicle>
    <vehicle id="210" type="bus" depart="437.00">
        <route edges="B0C0 C0C1 C1C2 C2D2 D2E2 E2E1"/>
    </vehicle>
    <vehicle id="211" type="bus" depart="437.62">
        <route edges="D0C0 C0D0 D0C0 C0B0"/>
    </vehicle>
    <vehicle id="212" type="car" depart="439.08">
        <route edges="A1A0 A0B0 B0B1 B1B2 B2A2"/>
    </vehicle>
    <vehicle id="213" type="car" depart="439.66">
        <route edges="C0C1 C1B1 B1A1 A1A2 A2B2"/>
    </vehicle>
    <vehicle id="214" type="bus" depart="441.12">
        <route edges="D2E2 E2E1 E1E2 E2D2 D2E2"/>
    </vehicle>
    <vehicle id="215" type="bus" depart="442.24">
        <route edges="D2E2 E2E1 E1E2 E2D2 D2E2"/>
    </vehicle>
    <vehicle id="216" type="bus" depart="443.26">
        <route edges="A2A1 A1A2 A2B2 B2A2"/>
    </vehicle>
    <vehicle id="217" type="truck" depart="443.89">
        <route edges="E1D1 D1C1 C1C0 C0B0 B0A0 A0A1 A1B1"/>
    </vehicle>
    <vehicle id="218" type="car" depart="445.20">
        <route edges="E2E1 E1E0 E0D0 D0C0 C0B0 B0A0 A0A1"/>
    </vehicle>
    <vehicle id="219" type="bus" depart="445.71">
        <route edges="A2A1 A1A2 A2B2 B2A2"/>
    </vehicle>
    <vehicle id="220" type="bus" depart="446.65">
        <route edges="C1C2 C2D2 D2E2 E2E1 E1E2 E2D2"/>
    </vehicle>
    <vehicle id="221" type="truck" depart="447.34">
        <route edges="C2D2 D2E2 E2E1 E1D1 D1C1 C1C2"/>
    </vehicle>
    <vehicle id="222" type="car" depart="448.02">
        <route edges="D0E0 E0E1 E1D1 D1C1 C1D1 D1D2 D2C2"/>
    </vehicle>
    <vehicle id="223" type="bus" depart="448.71">
        <route edges="E0E1 E1E0 E0D0 D0C0 C0D0 D0D1"/>
    </vehicle>
    <vehicle id="224" type="car" depart="450.02">
        <route edges="A1B1 B1B0"/>
    </vehicle>
    <vehicle id="225" type="truck" depart="450.84">
        <route edges="C1C2 C2C1 C1D1"/>
    </vehicle>
    <vehicle id="226" type="truck" depart="451.39">
        <route edges="B0A0 A0A1 A1A0 A0B0 B0A0 A0A1 A1A0"/>
    </vehicle>
    <vehicle id="227" type="truck" depart="452.35">
        <route edges="B0A0 A0A1 A1A0 A0B0 B0A0 A0A1 A1A0"/>
    </vehicle>
    <vehicle id="228" type="truck" depart="452.94">
        <route edges="C1C2 C2D2 D2E2 E2E1 E1E2 E2D2 D2C2"/>
    </vehicle>
    <vehicle id="229" type="truck" depart="454.08">
        <route edges="D1C1 C1C0 C0B0 B0B1 B1B2 B2A2"/>
    </vehicle>
    <vehicle id="230" type="car" depart="455.13">
        <route edges="D0D1 D1D0 D0E0 E0E1 E1E2 E2D2"/>
    </vehicle>
    <vehicle id="231" type="car" depart="455.99">
        <route edges="B2B1 B1B2 B2C2 C2D2"/>
    </vehicle>
    <vehicle id="232" type="truck" depart="456.56">
        <route edges="D1D2 D2C2 C2B2 B2A2 A2A1"/>
    </vehicle>
    <vehicle id="233" type="car" depart="457.33">
        <route edges="C0C1 C1D1 D1D2"/>
    </vehicle>
    <vehicle id="234" type="truck" depart="458.43">
        <route edges="E1D1 D1C1 C1C0 C0B0 B0A0 A0A1 A1B1"/>
    </vehicle>
    <vehicle id="235" type="truck" depart="459.72">
        <route edges="C1C0 C0C1 C1C0 C0B0 B0B1 B1B2"/>
    </vehicle>
    <vehicle id="236" type="bus" depart="460.25">
        <route edges="C0D0 D0C0 C0C1 C1C0 C0B0 B0B1 B1C1"/>
    </vehicle>
    <vehicle id="237" type="car" depart="461.27">
        <route edges="E1E0 E0D0 D0C0"/>
    </vehicle>
    <vehicle id="238" type="truck" depart="462.12">
        <route edges="B0B1 B1B0 B0C0"/>
    </vehicle>
    <vehicle id="239" type="truck" depart="462.74">
        <route edges="B0A0 A0A1"/>
    </vehicle>
    <vehicle id="240" type="truck" depart="463.30">
        <route edges="E1E2 E2D2 D2D1 D1E1 E1E0 E0D0"/>
    </vehicle>
    <vehicle id="241" type="car" depart="464.24">
        <route edges="B2C2 C2C1 C1C0 C0C1"/>
    </vehicle>
    <vehicle id="242" type="truck" depart="465.73">
        <route edges="E2E1 E1E0 E0D0 D0C0 C0B0 B0A0 A0A1"/>
    </vehicle>
    <vehicle id="243" type="bus" depart="466.75">
        <route edges="B1B2 B2A2 A2A1"/>
    </vehicle>
    <vehicle id="244" type="car" depart="467.57">
        <route edges="C1B1 B1B2 B2C2 C2C1 C1C0 C0C1"/>
    </vehicle>
    <vehicle id="245" type="bus" depart="468.52">
        <route edges="C2B2 B2A2"/>
    </vehicle>
    <vehicle id="246" type="car" depart="469.39">
        <route edges="A2A1 A1B1 B1C1 C1B1 B1B2"/>
    </vehicle>
    <vehicle id="247" type="truck" depart="469.94">
        <route edges="A2A1 A1A2 A2B2 B2A2"/>
    </vehicle>
    <vehicle id="248" type="bus" depart="471.08">
        <route edges="B0B1 B1B2 B2B1"/>
    </vehicle>
    <vehicle id="249" type="car" depart="471.61">
        <route edges="B1C1 C1C0 C0D0 D0E0 E0E1 E1E2"/>
    </vehicle>
    <vehicle id="250" type="truck" depart="472.97">
        <route edges="B1B2 B2C2 C2D2 D2C2 C2B2 B2A2 A2A1"/>
    </vehicle>
    <vehicle id="251" type="car" depart="474.44">
        <route edges="C0D0 D0E0 E0E1 E1E2"/>
    </vehicle>
    <vehicle id="252" type="truck" depart="475.81">
        <route edges="E1E2 E2D2 D2D1 D1E1 E1E0 E0D0"/>
    </vehicle>
    <vehicle id="253" type="truck" depart="477.08">
        <route edges="C0C1 C1D1 D1D2"/>
    </vehicle>
    <vehicle id="254" type="truck" depart="477.78">
        <route edges="B0B1 B1B2 B2B1"/>
    </vehicle>
    <vehicle id="255" type="car" depart="478.52">
        <route edges="C2B2 B2A2"/>
    </vehicle>
    <vehicle id="256" type="truck" depart="479.69">
        <route edges="D1C1 C1B1 B1C1 C1C2 C2B2 B2A2"/>
    </vehicle>
    <vehicle id="257" type="truck" depart="480.72">
        <route edges="B2C2 C2C1 C1C0 C0C1"/>
    </vehicle>
    <vehicle id="258" type="bus" depart="481.37">
        <route edges="D0E0 E0E1 E1E2 E2D2"/>
    </vehicle>
    <vehicle id="259" type="car" depart="482.15">
        <route edges="D1D2 D2C2 C2B2 B2A2 A2A1"/>
    </vehicle>
    <vehicle id="260" type="truck" depart="482.74">
        <route edges="B0A0 A0A1 A1A0 A0B0 B0A0 A0A1 A1A0"/>
    </vehicle>
    <vehicle id="261" type="bus" depart="484.22">
        <route edges="D1C1 C1B1 B1C1 C1C2 C2B2 B2A2"/>
    </vehicle>
    <vehicle id="262" type="car" depart="485.15">
        <route edges="C2B2 B2C2 C2B2"/>
    </vehicle>
    <vehicle id="263" type="truck" depart="485.94">
        <route edges="D0D1 D1D0 D0E0 E0E1 E1E2 E2D2"/>
    </vehicle>